* NGSPICE file created from NanoCGRA_Lite.ext - technology: gf180mcuD

.subckt gf180mcu_fd_sc_mcu7t5v0__clkinv_1 VDD VSS I ZN VNW VPW
X0 ZN I VSS VPW nfet_05v0 ad=0.2112p pd=1.84u as=0.2112p ps=1.84u w=0.48u l=0.6u
X1 ZN I VDD VNW pfet_05v0 ad=0.5368p pd=3.32u as=0.5368p ps=3.32u w=1.22u l=0.5u
.ends

.subckt gf180mcu_fd_sc_mcu7t5v0__nand2_2 VDD VSS ZN A1 A2 VNW VPW
X0 a_244_68# A2 VSS VPW nfet_05v0 ad=0.1312p pd=1.14u as=0.3608p ps=2.52u w=0.82u l=0.6u
X1 ZN A1 a_244_68# VPW nfet_05v0 ad=0.2132p pd=1.34u as=0.1312p ps=1.14u w=0.82u l=0.6u
X2 ZN A2 VDD VNW pfet_05v0 ad=0.2938p pd=1.65u as=0.4972p ps=3.14u w=1.13u l=0.5u
X3 VDD A1 ZN VNW pfet_05v0 ad=0.2938p pd=1.65u as=0.2938p ps=1.65u w=1.13u l=0.5u
X4 a_652_68# A1 ZN VPW nfet_05v0 ad=0.1312p pd=1.14u as=0.2132p ps=1.34u w=0.82u l=0.6u
X5 VSS A2 a_652_68# VPW nfet_05v0 ad=0.3608p pd=2.52u as=0.1312p ps=1.14u w=0.82u l=0.6u
X6 ZN A1 VDD VNW pfet_05v0 ad=0.2938p pd=1.65u as=0.2938p ps=1.65u w=1.13u l=0.5u
X7 VDD A2 ZN VNW pfet_05v0 ad=0.4972p pd=3.14u as=0.2938p ps=1.65u w=1.13u l=0.5u
.ends

.subckt gf180mcu_fd_sc_mcu7t5v0__nand2_4 VDD VSS ZN A1 A2 VNW VPW
X0 ZN A1 VDD VNW pfet_05v0 ad=0.2938p pd=1.65u as=0.2938p ps=1.65u w=1.13u l=0.5u
X1 VSS A2 a_661_68# VPW nfet_05v0 ad=0.22755p pd=1.375u as=98.399994f ps=1.06u w=0.82u l=0.6u
X2 VDD A2 ZN VNW pfet_05v0 ad=0.2938p pd=1.65u as=0.2938p ps=1.65u w=1.13u l=0.5u
X3 ZN A1 a_260_68# VPW nfet_05v0 ad=0.23165p pd=1.385u as=98.399994f ps=1.06u w=0.82u l=0.6u
X4 a_1468_68# A1 ZN VPW nfet_05v0 ad=0.1312p pd=1.14u as=0.2132p ps=1.34u w=0.82u l=0.6u
X5 ZN A2 VDD VNW pfet_05v0 ad=0.2938p pd=1.65u as=0.2938p ps=1.65u w=1.13u l=0.5u
X6 VDD A1 ZN VNW pfet_05v0 ad=0.2938p pd=1.65u as=0.2938p ps=1.65u w=1.13u l=0.5u
X7 ZN A1 a_1060_68# VPW nfet_05v0 ad=0.2132p pd=1.34u as=0.1312p ps=1.14u w=0.82u l=0.6u
X8 ZN A1 VDD VNW pfet_05v0 ad=0.2938p pd=1.65u as=0.2938p ps=1.65u w=1.13u l=0.5u
X9 a_661_68# A1 ZN VPW nfet_05v0 ad=98.399994f pd=1.06u as=0.23165p ps=1.385u w=0.82u l=0.6u
X10 a_1060_68# A2 VSS VPW nfet_05v0 ad=0.1312p pd=1.14u as=0.22755p ps=1.375u w=0.82u l=0.6u
X11 VDD A2 ZN VNW pfet_05v0 ad=0.4972p pd=3.14u as=0.2938p ps=1.65u w=1.13u l=0.5u
X12 a_260_68# A2 VSS VPW nfet_05v0 ad=98.399994f pd=1.06u as=0.3608p ps=2.52u w=0.82u l=0.6u
X13 VSS A2 a_1468_68# VPW nfet_05v0 ad=0.3608p pd=2.52u as=0.1312p ps=1.14u w=0.82u l=0.6u
X14 ZN A2 VDD VNW pfet_05v0 ad=0.2938p pd=1.65u as=0.4972p ps=3.14u w=1.13u l=0.5u
X15 VDD A1 ZN VNW pfet_05v0 ad=0.2938p pd=1.65u as=0.2938p ps=1.65u w=1.13u l=0.5u
.ends

.subckt gf180mcu_fd_sc_mcu7t5v0__dffq_4 D Q VDD VSS CLK VNW VPW
X0 VSS CLK a_36_151# VPW nfet_05v0 ad=0.1053p pd=0.925u as=0.1782p ps=1.69u w=0.405u l=0.6u
X1 VDD a_2011_527# a_2304_115# VNW pfet_05v0 ad=0.38575p pd=1.92u as=0.2457p ps=1.465u w=0.945u l=0.5u
X2 a_1004_159# D a_836_159# VPW nfet_05v0 ad=0.207p pd=1.51u as=43.199997f ps=0.6u w=0.36u l=0.6u
X3 VSS a_2304_115# Q VPW nfet_05v0 ad=0.3586p pd=2.51u as=0.2119p ps=1.335u w=0.815u l=0.6u
X4 a_2304_115# a_2011_527# VSS VPW nfet_05v0 ad=0.2119p pd=1.335u as=0.2333p ps=1.555u w=0.815u l=0.6u
X5 a_1004_159# D a_880_527# VNW pfet_05v0 ad=0.1872p pd=1.4u as=53.999996f ps=0.66u w=0.36u l=0.5u
X6 a_2011_527# a_36_151# a_1376_115# VNW pfet_05v0 ad=0.1665p pd=1.285u as=0.1791p ps=1.355u w=0.36u l=0.5u
X7 a_2296_527# a_448_472# a_2011_527# VNW pfet_05v0 ad=50.399998f pd=0.64u as=0.1665p ps=1.285u w=0.36u l=0.5u
X8 Q a_2304_115# VDD VNW pfet_05v0 ad=0.4392p pd=1.94u as=0.38575p ps=1.92u w=1.22u l=0.5u
X9 VSS a_2304_115# Q VPW nfet_05v0 ad=0.2119p pd=1.335u as=0.2119p ps=1.335u w=0.815u l=0.6u
X10 a_1376_115# a_1004_159# VDD VNW pfet_05v0 ad=0.1791p pd=1.355u as=0.1044p ps=0.94u w=0.36u l=0.5u
X11 VDD CLK a_36_151# VNW pfet_05v0 ad=0.2249p pd=1.385u as=0.3806p ps=2.61u w=0.865u l=0.5u
X12 VDD a_2304_115# Q VNW pfet_05v0 ad=0.3172p pd=1.74u as=0.4392p ps=1.94u w=1.22u l=0.5u
X13 VSS a_1376_115# a_1328_159# VPW nfet_05v0 ad=0.2637p pd=1.825u as=43.199997f ps=0.6u w=0.36u l=0.6u
X14 a_2011_527# a_448_472# a_1376_115# VPW nfet_05v0 ad=93.59999f pd=0.88u as=93.59999f ps=0.88u w=0.36u l=0.6u
X15 Q a_2304_115# VDD VNW pfet_05v0 ad=0.4392p pd=1.94u as=0.3172p ps=1.74u w=1.22u l=0.5u
X16 a_448_472# a_36_151# VDD VNW pfet_05v0 ad=0.3806p pd=2.61u as=0.2249p ps=1.385u w=0.865u l=0.5u
X17 Q a_2304_115# VSS VPW nfet_05v0 ad=0.2119p pd=1.335u as=0.2119p ps=1.335u w=0.815u l=0.6u
X18 a_1376_115# a_1004_159# VSS VPW nfet_05v0 ad=93.59999f pd=0.88u as=0.2637p ps=1.825u w=0.36u l=0.6u
X19 VSS a_2304_115# a_2256_159# VPW nfet_05v0 ad=0.2333p pd=1.555u as=43.199997f ps=0.6u w=0.36u l=0.6u
X20 Q a_2304_115# VSS VPW nfet_05v0 ad=0.2119p pd=1.335u as=0.2608p ps=1.455u w=0.815u l=0.6u
X21 a_836_159# a_36_151# VSS VPW nfet_05v0 ad=43.199997f pd=0.6u as=0.1584p ps=1.6u w=0.36u l=0.6u
X22 a_448_472# a_36_151# VSS VPW nfet_05v0 ad=0.1782p pd=1.69u as=0.1053p ps=0.925u w=0.405u l=0.6u
X23 a_2256_159# a_36_151# a_2011_527# VPW nfet_05v0 ad=43.199997f pd=0.6u as=93.59999f ps=0.88u w=0.36u l=0.6u
X24 a_880_527# a_448_472# VDD VNW pfet_05v0 ad=53.999996f pd=0.66u as=0.4554p ps=3.25u w=0.36u l=0.5u
X25 a_1348_527# a_36_151# a_1004_159# VNW pfet_05v0 ad=43.199997f pd=0.6u as=0.1872p ps=1.4u w=0.36u l=0.5u
X26 VDD a_2304_115# Q VNW pfet_05v0 ad=0.5368p pd=3.32u as=0.4392p ps=1.94u w=1.22u l=0.5u
X27 a_1328_159# a_448_472# a_1004_159# VPW nfet_05v0 ad=43.199997f pd=0.6u as=0.207p ps=1.51u w=0.36u l=0.6u
X28 VDD a_1376_115# a_1348_527# VNW pfet_05v0 ad=0.1044p pd=0.94u as=43.199997f ps=0.6u w=0.36u l=0.5u
X29 VSS a_2011_527# a_2304_115# VPW nfet_05v0 ad=0.2608p pd=1.455u as=0.2119p ps=1.335u w=0.815u l=0.6u
X30 VDD a_2304_115# a_2296_527# VNW pfet_05v0 ad=0.2619p pd=1.685u as=50.399998f ps=0.64u w=0.36u l=0.5u
X31 a_2304_115# a_2011_527# VDD VNW pfet_05v0 ad=0.2457p pd=1.465u as=0.2619p ps=1.685u w=0.945u l=0.5u
.ends

.subckt gf180mcu_fd_sc_mcu7t5v0__nand2_1 VDD VSS ZN A1 A2 VNW VPW
X0 ZN A2 VDD VNW pfet_05v0 ad=0.2938p pd=1.65u as=0.4972p ps=3.14u w=1.13u l=0.5u
X1 ZN A1 a_245_68# VPW nfet_05v0 ad=0.3608p pd=2.52u as=0.1312p ps=1.14u w=0.82u l=0.6u
X2 VDD A1 ZN VNW pfet_05v0 ad=0.4972p pd=3.14u as=0.2938p ps=1.65u w=1.13u l=0.5u
X3 a_245_68# A2 VSS VPW nfet_05v0 ad=0.1312p pd=1.14u as=0.3608p ps=2.52u w=0.82u l=0.6u
.ends

.subckt gf180mcu_fd_sc_mcu7t5v0__buf_16 Z I VDD VSS VNW VPW
X0 Z a_224_472# VSS VPW nfet_05v0 ad=0.2132p pd=1.34u as=0.2132p ps=1.34u w=0.82u l=0.6u
X1 a_224_472# I VDD VNW pfet_05v0 ad=0.3782p pd=1.84u as=0.3782p ps=1.84u w=1.22u l=0.5u
X2 VDD a_224_472# Z VNW pfet_05v0 ad=0.3782p pd=1.84u as=0.3782p ps=1.84u w=1.22u l=0.5u
X3 Z a_224_472# VDD VNW pfet_05v0 ad=0.3782p pd=1.84u as=0.3782p ps=1.84u w=1.22u l=0.5u
X4 Z a_224_472# VSS VPW nfet_05v0 ad=0.2132p pd=1.34u as=0.2132p ps=1.34u w=0.82u l=0.6u
X5 a_224_472# I VSS VPW nfet_05v0 ad=0.2132p pd=1.34u as=0.2132p ps=1.34u w=0.82u l=0.6u
X6 VSS a_224_472# Z VPW nfet_05v0 ad=0.2132p pd=1.34u as=0.2132p ps=1.34u w=0.82u l=0.6u
X7 VSS a_224_472# Z VPW nfet_05v0 ad=0.2132p pd=1.34u as=0.2132p ps=1.34u w=0.82u l=0.6u
X8 VDD I a_224_472# VNW pfet_05v0 ad=0.3782p pd=1.84u as=0.3782p ps=1.84u w=1.22u l=0.5u
X9 Z a_224_472# VDD VNW pfet_05v0 ad=0.3782p pd=1.84u as=0.3782p ps=1.84u w=1.22u l=0.5u
X10 Z a_224_472# VDD VNW pfet_05v0 ad=0.3782p pd=1.84u as=0.3782p ps=1.84u w=1.22u l=0.5u
X11 a_224_472# I VSS VPW nfet_05v0 ad=0.2132p pd=1.34u as=0.3608p ps=2.52u w=0.82u l=0.6u
X12 Z a_224_472# VSS VPW nfet_05v0 ad=0.2132p pd=1.34u as=0.2132p ps=1.34u w=0.82u l=0.6u
X13 Z a_224_472# VSS VPW nfet_05v0 ad=0.2132p pd=1.34u as=0.2132p ps=1.34u w=0.82u l=0.6u
X14 VSS a_224_472# Z VPW nfet_05v0 ad=0.2132p pd=1.34u as=0.2132p ps=1.34u w=0.82u l=0.6u
X15 Z a_224_472# VDD VNW pfet_05v0 ad=0.3782p pd=1.84u as=0.3782p ps=1.84u w=1.22u l=0.5u
X16 VSS a_224_472# Z VPW nfet_05v0 ad=0.2132p pd=1.34u as=0.2132p ps=1.34u w=0.82u l=0.6u
X17 VDD I a_224_472# VNW pfet_05v0 ad=0.3782p pd=1.84u as=0.3782p ps=1.84u w=1.22u l=0.5u
X18 a_224_472# I VSS VPW nfet_05v0 ad=0.2132p pd=1.34u as=0.2132p ps=1.34u w=0.82u l=0.6u
X19 Z a_224_472# VSS VPW nfet_05v0 ad=0.2132p pd=1.34u as=0.2132p ps=1.34u w=0.82u l=0.6u
X20 VSS a_224_472# Z VPW nfet_05v0 ad=0.2132p pd=1.34u as=0.2132p ps=1.34u w=0.82u l=0.6u
X21 VDD a_224_472# Z VNW pfet_05v0 ad=0.3782p pd=1.84u as=0.3782p ps=1.84u w=1.22u l=0.5u
X22 Z a_224_472# VDD VNW pfet_05v0 ad=0.3782p pd=1.84u as=0.3782p ps=1.84u w=1.22u l=0.5u
X23 Z a_224_472# VSS VPW nfet_05v0 ad=0.2132p pd=1.34u as=0.2132p ps=1.34u w=0.82u l=0.6u
X24 VDD I a_224_472# VNW pfet_05v0 ad=0.3782p pd=1.84u as=0.3782p ps=1.84u w=1.22u l=0.5u
X25 VDD a_224_472# Z VNW pfet_05v0 ad=0.3782p pd=1.84u as=0.3782p ps=1.84u w=1.22u l=0.5u
X26 VDD a_224_472# Z VNW pfet_05v0 ad=0.3782p pd=1.84u as=0.3782p ps=1.84u w=1.22u l=0.5u
X27 Z a_224_472# VDD VNW pfet_05v0 ad=0.3782p pd=1.84u as=0.3782p ps=1.84u w=1.22u l=0.5u
X28 Z a_224_472# VSS VPW nfet_05v0 ad=0.2132p pd=1.34u as=0.2132p ps=1.34u w=0.82u l=0.6u
X29 a_224_472# I VDD VNW pfet_05v0 ad=0.3782p pd=1.84u as=0.3782p ps=1.84u w=1.22u l=0.5u
X30 VSS I a_224_472# VPW nfet_05v0 ad=0.2132p pd=1.34u as=0.2132p ps=1.34u w=0.82u l=0.6u
X31 VDD I a_224_472# VNW pfet_05v0 ad=0.3782p pd=1.84u as=0.3782p ps=1.84u w=1.22u l=0.5u
X32 VSS I a_224_472# VPW nfet_05v0 ad=0.2132p pd=1.34u as=0.2132p ps=1.34u w=0.82u l=0.6u
X33 VDD a_224_472# Z VNW pfet_05v0 ad=0.3782p pd=1.84u as=0.3782p ps=1.84u w=1.22u l=0.5u
X34 VSS a_224_472# Z VPW nfet_05v0 ad=0.2132p pd=1.34u as=0.2132p ps=1.34u w=0.82u l=0.6u
X35 VSS a_224_472# Z VPW nfet_05v0 ad=0.2132p pd=1.34u as=0.2132p ps=1.34u w=0.82u l=0.6u
X36 a_224_472# I VDD VNW pfet_05v0 ad=0.3782p pd=1.84u as=0.3782p ps=1.84u w=1.22u l=0.5u
X37 VDD a_224_472# Z VNW pfet_05v0 ad=0.5368p pd=3.32u as=0.3782p ps=1.84u w=1.22u l=0.5u
X38 Z a_224_472# VDD VNW pfet_05v0 ad=0.3782p pd=1.84u as=0.3782p ps=1.84u w=1.22u l=0.5u
X39 VSS I a_224_472# VPW nfet_05v0 ad=0.2132p pd=1.34u as=0.2132p ps=1.34u w=0.82u l=0.6u
X40 VDD a_224_472# Z VNW pfet_05v0 ad=0.3782p pd=1.84u as=0.3782p ps=1.84u w=1.22u l=0.5u
X41 a_224_472# I VDD VNW pfet_05v0 ad=0.3782p pd=1.84u as=0.5368p ps=3.32u w=1.22u l=0.5u
X42 VDD a_224_472# Z VNW pfet_05v0 ad=0.3782p pd=1.84u as=0.3782p ps=1.84u w=1.22u l=0.5u
X43 VSS I a_224_472# VPW nfet_05v0 ad=0.2132p pd=1.34u as=0.2132p ps=1.34u w=0.82u l=0.6u
X44 Z a_224_472# VSS VPW nfet_05v0 ad=0.2132p pd=1.34u as=0.2132p ps=1.34u w=0.82u l=0.6u
X45 VSS a_224_472# Z VPW nfet_05v0 ad=0.3608p pd=2.52u as=0.2132p ps=1.34u w=0.82u l=0.6u
X46 Z a_224_472# VDD VNW pfet_05v0 ad=0.3782p pd=1.84u as=0.3782p ps=1.84u w=1.22u l=0.5u
X47 a_224_472# I VSS VPW nfet_05v0 ad=0.2132p pd=1.34u as=0.2132p ps=1.34u w=0.82u l=0.6u
.ends

.subckt gf180mcu_fd_sc_mcu7t5v0__oai22_1 A2 B1 B2 VDD VSS ZN A1 VNW VPW
X0 ZN A1 a_36_68# VPW nfet_05v0 ad=0.2132p pd=1.34u as=0.2132p ps=1.34u w=0.82u l=0.6u
X1 VSS B2 a_36_68# VPW nfet_05v0 ad=0.2132p pd=1.34u as=0.3608p ps=2.52u w=0.82u l=0.6u
X2 a_244_472# B2 VDD VNW pfet_05v0 ad=0.3782p pd=1.84u as=0.6588p ps=3.52u w=1.22u l=0.5u
X3 a_692_472# A1 ZN VNW pfet_05v0 ad=0.3172p pd=1.74u as=0.3782p ps=1.84u w=1.22u l=0.5u
X4 VDD A2 a_692_472# VNW pfet_05v0 ad=0.5368p pd=3.32u as=0.3172p ps=1.74u w=1.22u l=0.5u
X5 a_36_68# A2 ZN VPW nfet_05v0 ad=0.3608p pd=2.52u as=0.2132p ps=1.34u w=0.82u l=0.6u
X6 a_36_68# B1 VSS VPW nfet_05v0 ad=0.2132p pd=1.34u as=0.2132p ps=1.34u w=0.82u l=0.6u
X7 ZN B1 a_244_472# VNW pfet_05v0 ad=0.3782p pd=1.84u as=0.3782p ps=1.84u w=1.22u l=0.5u
.ends

.subckt gf180mcu_fd_sc_mcu7t5v0__aoi221_1 B2 C VDD VSS ZN A1 A2 B1 VNW VPW
X0 a_672_472# C a_56_472# VNW pfet_05v0 ad=0.3402p pd=1.775u as=0.37665p ps=1.835u w=1.215u l=0.5u
X1 VDD B2 a_56_472# VNW pfet_05v0 ad=0.3159p pd=1.735u as=0.5346p ps=3.31u w=1.215u l=0.5u
X2 ZN A1 a_940_90# VPW nfet_05v0 ad=0.3124p pd=2.3u as=85.2f ps=0.95u w=0.71u l=0.6u
X3 a_56_472# B1 VDD VNW pfet_05v0 ad=0.37665p pd=1.835u as=0.3159p ps=1.735u w=1.215u l=0.5u
X4 a_672_472# A1 ZN VNW pfet_05v0 ad=0.5346p pd=3.31u as=0.37665p ps=1.835u w=1.215u l=0.5u
X5 ZN A2 a_672_472# VNW pfet_05v0 ad=0.37665p pd=1.835u as=0.3402p ps=1.775u w=1.215u l=0.5u
X6 a_244_90# B2 VSS VPW nfet_05v0 ad=85.2f pd=0.95u as=0.3124p ps=2.3u w=0.71u l=0.6u
X7 ZN B1 a_244_90# VPW nfet_05v0 ad=0.21175p pd=1.41u as=85.2f ps=0.95u w=0.71u l=0.6u
X8 a_940_90# A2 VSS VPW nfet_05v0 ad=85.2f pd=0.95u as=0.22595p ps=1.45u w=0.71u l=0.6u
X9 VSS C ZN VPW nfet_05v0 ad=0.22595p pd=1.45u as=0.21175p ps=1.41u w=0.465u l=0.6u
.ends

.subckt gf180mcu_fd_sc_mcu7t5v0__clkinv_4 VDD VSS ZN I VNW VPW
X0 ZN I VDD VNW pfet_05v0 ad=0.4392p pd=1.94u as=0.3172p ps=1.74u w=1.22u l=0.5u
X1 VSS I ZN VPW nfet_05v0 ad=0.2112p pd=1.84u as=0.1248p ps=1u w=0.48u l=0.6u
X2 ZN I VSS VPW nfet_05v0 ad=0.1248p pd=1u as=0.2112p ps=1.84u w=0.48u l=0.6u
X3 VDD I ZN VNW pfet_05v0 ad=0.5368p pd=3.32u as=0.4392p ps=1.94u w=1.22u l=0.5u
X4 ZN I VSS VPW nfet_05v0 ad=0.1248p pd=1u as=0.1248p ps=1u w=0.48u l=0.6u
X5 ZN I VDD VNW pfet_05v0 ad=0.4392p pd=1.94u as=0.5368p ps=3.32u w=1.22u l=0.5u
X6 VDD I ZN VNW pfet_05v0 ad=0.3172p pd=1.74u as=0.4392p ps=1.94u w=1.22u l=0.5u
X7 VSS I ZN VPW nfet_05v0 ad=0.1248p pd=1u as=0.1248p ps=1u w=0.48u l=0.6u
.ends

.subckt gf180mcu_fd_sc_mcu7t5v0__dffq_1 VDD Q CLK VSS D VNW VPW
X0 VSS CLK a_36_151# VPW nfet_05v0 ad=0.1053p pd=0.925u as=0.1782p ps=1.69u w=0.405u l=0.6u
X1 Q a_2304_115# VSS VPW nfet_05v0 ad=0.3608p pd=2.52u as=0.3608p ps=2.52u w=0.82u l=0.6u
X2 a_2304_115# a_2011_527# VSS VPW nfet_05v0 ad=0.176p pd=1.68u as=0.142p ps=1.14u w=0.4u l=0.6u
X3 a_1004_159# D a_836_159# VPW nfet_05v0 ad=0.207p pd=1.51u as=43.199997f ps=0.6u w=0.36u l=0.6u
X4 a_1004_159# D a_880_527# VNW pfet_05v0 ad=0.1872p pd=1.4u as=53.999996f ps=0.66u w=0.36u l=0.5u
X5 a_2011_527# a_36_151# a_1376_115# VNW pfet_05v0 ad=0.1665p pd=1.285u as=0.1791p ps=1.355u w=0.36u l=0.5u
X6 a_2296_527# a_448_472# a_2011_527# VNW pfet_05v0 ad=50.399998f pd=0.64u as=0.1665p ps=1.285u w=0.36u l=0.5u
X7 a_1376_115# a_1004_159# VDD VNW pfet_05v0 ad=0.1791p pd=1.355u as=0.1044p ps=0.94u w=0.36u l=0.5u
X8 VDD CLK a_36_151# VNW pfet_05v0 ad=0.2249p pd=1.385u as=0.3806p ps=2.61u w=0.865u l=0.5u
X9 VSS a_1376_115# a_1328_159# VPW nfet_05v0 ad=0.2637p pd=1.825u as=43.199997f ps=0.6u w=0.36u l=0.6u
X10 a_2011_527# a_448_472# a_1376_115# VPW nfet_05v0 ad=93.59999f pd=0.88u as=93.59999f ps=0.88u w=0.36u l=0.6u
X11 a_448_472# a_36_151# VDD VNW pfet_05v0 ad=0.3806p pd=2.61u as=0.2249p ps=1.385u w=0.865u l=0.5u
X12 Q a_2304_115# VDD VNW pfet_05v0 ad=0.5368p pd=3.32u as=0.5368p ps=3.32u w=1.22u l=0.5u
X13 a_1376_115# a_1004_159# VSS VPW nfet_05v0 ad=93.59999f pd=0.88u as=0.2637p ps=1.825u w=0.36u l=0.6u
X14 VSS a_2304_115# a_2256_159# VPW nfet_05v0 ad=0.142p pd=1.14u as=43.199997f ps=0.6u w=0.36u l=0.6u
X15 a_836_159# a_36_151# VSS VPW nfet_05v0 ad=43.199997f pd=0.6u as=0.1584p ps=1.6u w=0.36u l=0.6u
X16 a_448_472# a_36_151# VSS VPW nfet_05v0 ad=0.1782p pd=1.69u as=0.1053p ps=0.925u w=0.405u l=0.6u
X17 a_2256_159# a_36_151# a_2011_527# VPW nfet_05v0 ad=43.199997f pd=0.6u as=93.59999f ps=0.88u w=0.36u l=0.6u
X18 a_880_527# a_448_472# VDD VNW pfet_05v0 ad=53.999996f pd=0.66u as=0.4554p ps=3.25u w=0.36u l=0.5u
X19 a_1348_527# a_36_151# a_1004_159# VNW pfet_05v0 ad=43.199997f pd=0.6u as=0.1872p ps=1.4u w=0.36u l=0.5u
X20 a_1328_159# a_448_472# a_1004_159# VPW nfet_05v0 ad=43.199997f pd=0.6u as=0.207p ps=1.51u w=0.36u l=0.6u
X21 VDD a_1376_115# a_1348_527# VNW pfet_05v0 ad=0.1044p pd=0.94u as=43.199997f ps=0.6u w=0.36u l=0.5u
X22 VDD a_2304_115# a_2296_527# VNW pfet_05v0 ad=0.23p pd=1.54u as=50.399998f ps=0.64u w=0.36u l=0.5u
X23 a_2304_115# a_2011_527# VDD VNW pfet_05v0 ad=0.352p pd=2.48u as=0.23p ps=1.54u w=0.8u l=0.5u
.ends

.subckt gf180mcu_fd_sc_mcu7t5v0__nand3_2 A3 VDD VSS ZN A1 A2 VNW VPW
X0 ZN A1 VDD VNW pfet_05v0 ad=0.2561p pd=1.505u as=0.2561p ps=1.505u w=0.985u l=0.5u
X1 VDD A1 ZN VNW pfet_05v0 ad=0.2561p pd=1.505u as=0.2561p ps=1.505u w=0.985u l=0.5u
X2 a_1044_68# A2 a_860_68# VPW nfet_05v0 ad=0.1722p pd=1.24u as=0.1312p ps=1.14u w=0.82u l=0.6u
X3 a_860_68# A1 ZN VPW nfet_05v0 ad=0.1312p pd=1.14u as=0.2132p ps=1.34u w=0.82u l=0.6u
X4 ZN A2 VDD VNW pfet_05v0 ad=0.2561p pd=1.505u as=0.2561p ps=1.505u w=0.985u l=0.5u
X5 VDD A3 ZN VNW pfet_05v0 ad=0.4334p pd=2.85u as=0.2561p ps=1.505u w=0.985u l=0.5u
X6 VSS A3 a_1044_68# VPW nfet_05v0 ad=0.3608p pd=2.52u as=0.1722p ps=1.24u w=0.82u l=0.6u
X7 a_276_68# A3 VSS VPW nfet_05v0 ad=0.1148p pd=1.1u as=0.3608p ps=2.52u w=0.82u l=0.6u
X8 ZN A3 VDD VNW pfet_05v0 ad=0.2561p pd=1.505u as=0.4334p ps=2.85u w=0.985u l=0.5u
X9 VDD A2 ZN VNW pfet_05v0 ad=0.2561p pd=1.505u as=0.2561p ps=1.505u w=0.985u l=0.5u
X10 a_452_68# A2 a_276_68# VPW nfet_05v0 ad=0.1312p pd=1.14u as=0.1148p ps=1.1u w=0.82u l=0.6u
X11 ZN A1 a_452_68# VPW nfet_05v0 ad=0.2132p pd=1.34u as=0.1312p ps=1.14u w=0.82u l=0.6u
.ends

.subckt gf180mcu_fd_sc_mcu7t5v0__xor2_1 VDD VSS Z A1 A2 VNW VPW
X0 a_728_472# a_56_604# VDD VNW pfet_05v0 ad=0.3172p pd=1.74u as=0.4005p ps=2.12u w=1.22u l=0.5u
X1 Z A1 a_728_472# VNW pfet_05v0 ad=0.3172p pd=1.74u as=0.3172p ps=1.74u w=1.22u l=0.5u
X2 VSS A1 a_56_604# VPW nfet_05v0 ad=0.218p pd=1.52u as=93.59999f ps=0.88u w=0.36u l=0.6u
X3 a_728_472# A2 Z VNW pfet_05v0 ad=0.5368p pd=3.32u as=0.3172p ps=1.74u w=1.22u l=0.5u
X4 Z a_56_604# VSS VPW nfet_05v0 ad=0.2132p pd=1.34u as=0.218p ps=1.52u w=0.82u l=0.6u
X5 VSS A2 a_952_68# VPW nfet_05v0 ad=0.3608p pd=2.52u as=0.1312p ps=1.14u w=0.82u l=0.6u
X6 a_244_604# A2 a_56_604# VNW pfet_05v0 ad=0.1456p pd=1.08u as=0.2464p ps=2u w=0.56u l=0.5u
X7 a_56_604# A2 VSS VPW nfet_05v0 ad=93.59999f pd=0.88u as=0.1584p ps=1.6u w=0.36u l=0.6u
X8 a_952_68# A1 Z VPW nfet_05v0 ad=0.1312p pd=1.14u as=0.2132p ps=1.34u w=0.82u l=0.6u
X9 VDD A1 a_244_604# VNW pfet_05v0 ad=0.4005p pd=2.12u as=0.1456p ps=1.08u w=0.56u l=0.5u
.ends

.subckt gf180mcu_fd_sc_mcu7t5v0__nor3_1 A3 VDD VSS ZN A1 A2 VNW VPW
X0 ZN A1 a_448_472# VNW pfet_05v0 ad=0.5368p pd=3.32u as=0.3782p ps=1.84u w=1.22u l=0.5u
X1 ZN A1 VSS VPW nfet_05v0 ad=0.2046p pd=1.81u as=0.1209p ps=0.985u w=0.465u l=0.6u
X2 a_244_472# A3 VDD VNW pfet_05v0 ad=0.3172p pd=1.74u as=0.5368p ps=3.32u w=1.22u l=0.5u
X3 a_448_472# A2 a_244_472# VNW pfet_05v0 ad=0.3782p pd=1.84u as=0.3172p ps=1.74u w=1.22u l=0.5u
X4 VSS A2 ZN VPW nfet_05v0 ad=0.1209p pd=0.985u as=0.1209p ps=0.985u w=0.465u l=0.6u
X5 ZN A3 VSS VPW nfet_05v0 ad=0.1209p pd=0.985u as=0.2046p ps=1.81u w=0.465u l=0.6u
.ends

.subckt gf180mcu_fd_sc_mcu7t5v0__nand3_1 A3 VDD VSS ZN A1 A2 VNW VPW
X0 ZN A1 a_455_68# VPW nfet_05v0 ad=0.3608p pd=2.52u as=0.1722p ps=1.24u w=0.82u l=0.6u
X1 ZN A3 VDD VNW pfet_05v0 ad=0.2561p pd=1.505u as=0.4334p ps=2.85u w=0.985u l=0.5u
X2 VDD A2 ZN VNW pfet_05v0 ad=0.2561p pd=1.505u as=0.2561p ps=1.505u w=0.985u l=0.5u
X3 ZN A1 VDD VNW pfet_05v0 ad=0.4334p pd=2.85u as=0.2561p ps=1.505u w=0.985u l=0.5u
X4 a_271_68# A3 VSS VPW nfet_05v0 ad=0.1312p pd=1.14u as=0.3608p ps=2.52u w=0.82u l=0.6u
X5 a_455_68# A2 a_271_68# VPW nfet_05v0 ad=0.1722p pd=1.24u as=0.1312p ps=1.14u w=0.82u l=0.6u
.ends

.subckt gf180mcu_fd_sc_mcu7t5v0__inv_3 VSS ZN I VDD VNW VPW
X0 ZN I VDD VNW pfet_05v0 ad=0.5368p pd=3.32u as=0.3172p ps=1.74u w=1.22u l=0.5u
X1 ZN I VSS VPW nfet_05v0 ad=0.3608p pd=2.52u as=0.2132p ps=1.34u w=0.82u l=0.6u
X2 ZN I VSS VPW nfet_05v0 ad=0.2132p pd=1.34u as=0.3608p ps=2.52u w=0.82u l=0.6u
X3 ZN I VDD VNW pfet_05v0 ad=0.4392p pd=1.94u as=0.5368p ps=3.32u w=1.22u l=0.5u
X4 VSS I ZN VPW nfet_05v0 ad=0.2132p pd=1.34u as=0.2132p ps=1.34u w=0.82u l=0.6u
X5 VDD I ZN VNW pfet_05v0 ad=0.3172p pd=1.74u as=0.4392p ps=1.94u w=1.22u l=0.5u
.ends

.subckt gf180mcu_fd_sc_mcu7t5v0__aoi222_4 A1 ZN VSS VDD C2 C1 B2 B1 A2 VNW VPW
X0 ZN A2 a_1812_472# VNW pfet_05v0 ad=0.3172p pd=1.74u as=0.3172p ps=1.74u w=1.22u l=0.5u
X1 a_224_472# C2 VDD VNW pfet_05v0 ad=0.3172p pd=1.74u as=0.3172p ps=1.74u w=1.22u l=0.5u
X2 ZN A1 a_4876_68# VPW nfet_05v0 ad=0.3608p pd=2.52u as=0.1312p ps=1.14u w=0.82u l=0.6u
X3 a_1812_472# A1 ZN VNW pfet_05v0 ad=0.5368p pd=3.32u as=0.3172p ps=1.74u w=1.22u l=0.5u
X4 a_2010_68# B1 ZN VPW nfet_05v0 ad=0.1517p pd=1.19u as=0.4879p ps=2.01u w=0.82u l=0.6u
X5 VSS A2 a_3652_68# VPW nfet_05v0 ad=0.2132p pd=1.34u as=0.1312p ps=1.14u w=0.82u l=0.6u
X6 a_3652_68# A1 ZN VPW nfet_05v0 ad=0.1312p pd=1.14u as=0.2132p ps=1.34u w=0.82u l=0.6u
X7 VDD C1 a_224_472# VNW pfet_05v0 ad=0.3172p pd=1.74u as=0.3172p ps=1.74u w=1.22u l=0.5u
X8 a_244_68# C1 ZN VPW nfet_05v0 ad=0.1312p pd=1.14u as=0.3608p ps=2.52u w=0.82u l=0.6u
X9 VSS C2 a_244_68# VPW nfet_05v0 ad=0.2132p pd=1.34u as=0.1312p ps=1.14u w=0.82u l=0.6u
X10 a_1812_472# B2 a_224_472# VNW pfet_05v0 ad=0.3172p pd=1.74u as=0.3172p ps=1.74u w=1.22u l=0.5u
X11 a_1468_68# C2 VSS VPW nfet_05v0 ad=0.1312p pd=1.14u as=0.2132p ps=1.34u w=0.82u l=0.6u
X12 a_2428_68# B2 VSS VPW nfet_05v0 ad=0.1312p pd=1.14u as=0.2132p ps=1.34u w=0.82u l=0.6u
X13 a_224_472# C1 VDD VNW pfet_05v0 ad=0.3172p pd=1.74u as=0.3172p ps=1.74u w=1.22u l=0.5u
X14 a_4468_68# A1 ZN VPW nfet_05v0 ad=0.1312p pd=1.14u as=0.2132p ps=1.34u w=0.82u l=0.6u
X15 a_224_472# B2 a_1812_472# VNW pfet_05v0 ad=0.3172p pd=1.74u as=0.3172p ps=1.74u w=1.22u l=0.5u
X16 a_224_472# B1 a_1812_472# VNW pfet_05v0 ad=0.3172p pd=1.74u as=0.5368p ps=3.32u w=1.22u l=0.5u
X17 a_4060_68# A2 VSS VPW nfet_05v0 ad=0.1312p pd=1.14u as=0.2132p ps=1.34u w=0.82u l=0.6u
X18 a_1812_472# B1 a_224_472# VNW pfet_05v0 ad=0.3172p pd=1.74u as=0.3172p ps=1.74u w=1.22u l=0.5u
X19 a_652_68# C2 VSS VPW nfet_05v0 ad=0.1312p pd=1.14u as=0.2132p ps=1.34u w=0.82u l=0.6u
X20 ZN C1 a_652_68# VPW nfet_05v0 ad=0.2132p pd=1.34u as=0.1312p ps=1.14u w=0.82u l=0.6u
X21 VDD C2 a_224_472# VNW pfet_05v0 ad=0.3172p pd=1.74u as=0.3172p ps=1.74u w=1.22u l=0.5u
X22 a_2836_68# B1 ZN VPW nfet_05v0 ad=0.1312p pd=1.14u as=0.2132p ps=1.34u w=0.82u l=0.6u
X23 a_224_472# B2 a_1812_472# VNW pfet_05v0 ad=0.3172p pd=1.74u as=0.3172p ps=1.74u w=1.22u l=0.5u
X24 a_224_472# B1 a_1812_472# VNW pfet_05v0 ad=0.3172p pd=1.74u as=0.3172p ps=1.74u w=1.22u l=0.5u
X25 VSS C2 a_1060_68# VPW nfet_05v0 ad=0.2132p pd=1.34u as=0.1312p ps=1.14u w=0.82u l=0.6u
X26 a_224_472# C2 VDD VNW pfet_05v0 ad=0.3172p pd=1.74u as=0.3172p ps=1.74u w=1.22u l=0.5u
X27 VSS B2 a_2010_68# VPW nfet_05v0 ad=0.2132p pd=1.34u as=0.1517p ps=1.19u w=0.82u l=0.6u
X28 a_4876_68# A2 VSS VPW nfet_05v0 ad=0.1312p pd=1.14u as=0.2132p ps=1.34u w=0.82u l=0.6u
X29 a_1812_472# B1 a_224_472# VNW pfet_05v0 ad=0.3172p pd=1.74u as=0.3172p ps=1.74u w=1.22u l=0.5u
X30 a_1812_472# B2 a_224_472# VNW pfet_05v0 ad=0.3172p pd=1.74u as=0.3172p ps=1.74u w=1.22u l=0.5u
X31 a_1060_68# C1 ZN VPW nfet_05v0 ad=0.1312p pd=1.14u as=0.2132p ps=1.34u w=0.82u l=0.6u
X32 ZN A1 a_4060_68# VPW nfet_05v0 ad=0.2132p pd=1.34u as=0.1312p ps=1.14u w=0.82u l=0.6u
X33 VDD C1 a_224_472# VNW pfet_05v0 ad=0.5368p pd=3.32u as=0.3172p ps=1.74u w=1.22u l=0.5u
X34 ZN A1 a_1812_472# VNW pfet_05v0 ad=0.3172p pd=1.74u as=0.3172p ps=1.74u w=1.22u l=0.5u
X35 a_1812_472# A1 ZN VNW pfet_05v0 ad=0.3172p pd=1.74u as=0.3172p ps=1.74u w=1.22u l=0.5u
X36 ZN C1 a_1468_68# VPW nfet_05v0 ad=0.4879p pd=2.01u as=0.1312p ps=1.14u w=0.82u l=0.6u
X37 a_1812_472# A2 ZN VNW pfet_05v0 ad=0.3172p pd=1.74u as=0.3172p ps=1.74u w=1.22u l=0.5u
X38 ZN B1 a_2428_68# VPW nfet_05v0 ad=0.2132p pd=1.34u as=0.1312p ps=1.14u w=0.82u l=0.6u
X39 ZN A2 a_1812_472# VNW pfet_05v0 ad=0.3172p pd=1.74u as=0.3172p ps=1.74u w=1.22u l=0.5u
X40 ZN A1 a_1812_472# VNW pfet_05v0 ad=0.3172p pd=1.74u as=0.3172p ps=1.74u w=1.22u l=0.5u
X41 VSS A2 a_4468_68# VPW nfet_05v0 ad=0.2132p pd=1.34u as=0.1312p ps=1.14u w=0.82u l=0.6u
X42 a_224_472# C1 VDD VNW pfet_05v0 ad=0.3172p pd=1.74u as=0.5368p ps=3.32u w=1.22u l=0.5u
X43 a_1812_472# A2 ZN VNW pfet_05v0 ad=0.3172p pd=1.74u as=0.3172p ps=1.74u w=1.22u l=0.5u
X44 ZN B1 a_3244_68# VPW nfet_05v0 ad=0.2132p pd=1.34u as=0.1312p ps=1.14u w=0.82u l=0.6u
X45 a_3244_68# B2 VSS VPW nfet_05v0 ad=0.1312p pd=1.14u as=0.2132p ps=1.34u w=0.82u l=0.6u
X46 VDD C2 a_224_472# VNW pfet_05v0 ad=0.3172p pd=1.74u as=0.3172p ps=1.74u w=1.22u l=0.5u
X47 VSS B2 a_2836_68# VPW nfet_05v0 ad=0.2132p pd=1.34u as=0.1312p ps=1.14u w=0.82u l=0.6u
.ends

.subckt gf180mcu_fd_sc_mcu7t5v0__nor3_4 A3 VDD VSS ZN A1 A2 VNW VPW
X0 a_672_472# A3 VDD VNW pfet_05v0 ad=0.3782p pd=1.84u as=0.3782p ps=1.84u w=1.22u l=0.5u
X1 ZN A1 a_36_472# VNW pfet_05v0 ad=0.3782p pd=1.84u as=0.3782p ps=1.84u w=1.22u l=0.5u
X2 ZN A1 VSS VPW nfet_05v0 ad=0.1209p pd=0.985u as=0.1209p ps=0.985u w=0.465u l=0.6u
X3 VDD A3 a_1120_472# VNW pfet_05v0 ad=0.3782p pd=1.84u as=0.3782p ps=1.84u w=1.22u l=0.5u
X4 ZN A1 a_1792_472# VNW pfet_05v0 ad=0.3782p pd=1.84u as=0.3782p ps=1.84u w=1.22u l=0.5u
X5 VSS A2 ZN VPW nfet_05v0 ad=0.1209p pd=0.985u as=0.1209p ps=0.985u w=0.465u l=0.6u
X6 VSS A3 ZN VPW nfet_05v0 ad=0.1209p pd=0.985u as=0.1209p ps=0.985u w=0.465u l=0.6u
X7 a_1792_472# A2 a_1568_472# VNW pfet_05v0 ad=0.3782p pd=1.84u as=0.3782p ps=1.84u w=1.22u l=0.5u
X8 VSS A1 ZN VPW nfet_05v0 ad=0.1209p pd=0.985u as=0.1209p ps=0.985u w=0.465u l=0.6u
X9 VDD A3 a_224_472# VNW pfet_05v0 ad=0.3782p pd=1.84u as=0.3782p ps=1.84u w=1.22u l=0.5u
X10 VSS A2 ZN VPW nfet_05v0 ad=0.1209p pd=0.985u as=0.1209p ps=0.985u w=0.465u l=0.6u
X11 a_36_472# A1 ZN VNW pfet_05v0 ad=0.3782p pd=1.84u as=0.3782p ps=1.84u w=1.22u l=0.5u
X12 VSS A3 ZN VPW nfet_05v0 ad=0.1209p pd=0.985u as=0.1209p ps=0.985u w=0.465u l=0.6u
X13 a_1120_472# A2 a_36_472# VNW pfet_05v0 ad=0.3782p pd=1.84u as=0.3782p ps=1.84u w=1.22u l=0.5u
X14 ZN A2 VSS VPW nfet_05v0 ad=0.1209p pd=0.985u as=0.1209p ps=0.985u w=0.465u l=0.6u
X15 a_36_472# A2 a_672_472# VNW pfet_05v0 ad=0.3782p pd=1.84u as=0.3782p ps=1.84u w=1.22u l=0.5u
X16 a_36_472# A1 ZN VNW pfet_05v0 ad=0.5368p pd=3.32u as=0.3782p ps=1.84u w=1.22u l=0.5u
X17 a_1568_472# A3 VDD VNW pfet_05v0 ad=0.3782p pd=1.84u as=0.3782p ps=1.84u w=1.22u l=0.5u
X18 ZN A3 VSS VPW nfet_05v0 ad=0.1209p pd=0.985u as=0.1209p ps=0.985u w=0.465u l=0.6u
X19 VSS A1 ZN VPW nfet_05v0 ad=0.2046p pd=1.81u as=0.1209p ps=0.985u w=0.465u l=0.6u
X20 ZN A2 VSS VPW nfet_05v0 ad=0.1209p pd=0.985u as=0.2046p ps=1.81u w=0.465u l=0.6u
X21 a_224_472# A2 a_36_472# VNW pfet_05v0 ad=0.3782p pd=1.84u as=0.5368p ps=3.32u w=1.22u l=0.5u
X22 ZN A1 VSS VPW nfet_05v0 ad=0.1209p pd=0.985u as=0.1209p ps=0.985u w=0.465u l=0.6u
X23 ZN A3 VSS VPW nfet_05v0 ad=0.1209p pd=0.985u as=0.1209p ps=0.985u w=0.465u l=0.6u
.ends

.subckt gf180mcu_fd_sc_mcu7t5v0__oai21_4 B VDD VSS A1 ZN A2 VNW VPW
X0 ZN A1 a_36_68# VPW nfet_05v0 ad=0.2132p pd=1.34u as=0.2132p ps=1.34u w=0.82u l=0.6u
X1 a_716_497# A1 ZN VNW pfet_05v0 ad=0.3942p pd=1.815u as=0.2847p ps=1.615u w=1.095u l=0.5u
X2 VDD B ZN VNW pfet_05v0 ad=0.4202p pd=2.79u as=0.2483p ps=1.475u w=0.955u l=0.5u
X3 VSS B a_36_68# VPW nfet_05v0 ad=0.2132p pd=1.34u as=0.2132p ps=1.34u w=0.82u l=0.6u
X4 VDD A2 a_716_497# VNW pfet_05v0 ad=0.2847p pd=1.615u as=0.3942p ps=1.815u w=1.095u l=0.5u
X5 VSS B a_36_68# VPW nfet_05v0 ad=0.2132p pd=1.34u as=0.30715p ps=1.685u w=0.82u l=0.6u
X6 ZN A2 a_36_68# VPW nfet_05v0 ad=0.30965p pd=1.685u as=0.3608p ps=2.52u w=0.82u l=0.6u
X7 a_36_68# A2 ZN VPW nfet_05v0 ad=0.2132p pd=1.34u as=0.2132p ps=1.34u w=0.82u l=0.6u
X8 a_1164_497# A2 VDD VNW pfet_05v0 ad=0.3942p pd=1.815u as=0.2847p ps=1.615u w=1.095u l=0.5u
X9 VDD A2 a_1612_497# VNW pfet_05v0 ad=0.5246p pd=2.135u as=0.33945p ps=1.715u w=1.095u l=0.5u
X10 a_36_68# A1 ZN VPW nfet_05v0 ad=0.2132p pd=1.34u as=0.30965p ps=1.685u w=0.82u l=0.6u
X11 a_36_68# A2 ZN VPW nfet_05v0 ad=0.30715p pd=1.685u as=0.2132p ps=1.34u w=0.82u l=0.6u
X12 a_36_68# A1 ZN VPW nfet_05v0 ad=0.2132p pd=1.34u as=0.2132p ps=1.34u w=0.82u l=0.6u
X13 ZN A1 a_1164_497# VNW pfet_05v0 ad=0.2847p pd=1.615u as=0.3942p ps=1.815u w=1.095u l=0.5u
X14 a_1612_497# A1 ZN VNW pfet_05v0 ad=0.33945p pd=1.715u as=0.2847p ps=1.615u w=1.095u l=0.5u
X15 ZN B VDD VNW pfet_05v0 ad=0.2483p pd=1.475u as=0.5246p ps=2.135u w=0.955u l=0.5u
X16 a_36_68# B VSS VPW nfet_05v0 ad=0.3608p pd=2.52u as=0.2132p ps=1.34u w=0.82u l=0.6u
X17 ZN A1 a_36_68# VPW nfet_05v0 ad=0.2132p pd=1.34u as=0.2132p ps=1.34u w=0.82u l=0.6u
X18 a_36_68# B VSS VPW nfet_05v0 ad=0.2132p pd=1.34u as=0.2132p ps=1.34u w=0.82u l=0.6u
X19 VDD B ZN VNW pfet_05v0 ad=0.2483p pd=1.475u as=0.2483p ps=1.475u w=0.955u l=0.5u
X20 ZN A2 a_36_68# VPW nfet_05v0 ad=0.2132p pd=1.34u as=0.2132p ps=1.34u w=0.82u l=0.6u
X21 a_224_497# A2 VDD VNW pfet_05v0 ad=0.51465p pd=2.035u as=0.4818p ps=3.07u w=1.095u l=0.5u
X22 ZN B VDD VNW pfet_05v0 ad=0.2483p pd=1.475u as=0.2483p ps=1.475u w=0.955u l=0.5u
X23 ZN A1 a_224_497# VNW pfet_05v0 ad=0.2847p pd=1.615u as=0.51465p ps=2.035u w=1.095u l=0.5u
.ends

.subckt gf180mcu_fd_sc_mcu7t5v0__xnor3_1 A3 VDD VSS ZN A1 A2 VNW VPW
X0 a_952_93# A1 a_728_93# VPW nfet_05v0 ad=57.599995f pd=0.68u as=93.59999f ps=0.88u w=0.36u l=0.6u
X1 a_244_567# A2 a_56_567# VNW pfet_05v0 ad=0.1026p pd=0.93u as=0.1584p ps=1.6u w=0.36u l=0.5u
X2 a_728_93# A1 a_718_527# VNW pfet_05v0 ad=0.1456p pd=1.08u as=0.1596p ps=1.13u w=0.56u l=0.5u
X3 ZN A3 a_1948_68# VPW nfet_05v0 ad=0.4161p pd=1.905u as=0.2132p ps=1.34u w=0.82u l=0.6u
X4 ZN a_1296_93# VDD VNW pfet_05v0 ad=0.33945p pd=1.715u as=0.352075p ps=1.895u w=1.095u l=0.5u
X5 VDD a_728_93# a_2172_497# VNW pfet_05v0 ad=0.4818p pd=3.07u as=0.5256p ps=2.055u w=1.095u l=0.5u
X6 a_718_527# a_56_567# VDD VNW pfet_05v0 ad=0.1596p pd=1.13u as=0.184p ps=1.36u w=0.56u l=0.5u
X7 a_718_527# A2 a_728_93# VNW pfet_05v0 ad=0.2464p pd=2u as=0.1456p ps=1.08u w=0.56u l=0.5u
X8 VSS A1 a_56_567# VPW nfet_05v0 ad=0.126p pd=1.06u as=93.59999f ps=0.88u w=0.36u l=0.6u
X9 VSS A3 a_1504_93# VPW nfet_05v0 ad=0.218p pd=1.52u as=57.599995f ps=0.68u w=0.36u l=0.6u
X10 a_1948_68# a_728_93# ZN VPW nfet_05v0 ad=0.3608p pd=2.52u as=0.4161p ps=1.905u w=0.82u l=0.6u
X11 a_2172_497# A3 ZN VNW pfet_05v0 ad=0.5256p pd=2.055u as=0.33945p ps=1.715u w=1.095u l=0.5u
X12 a_1504_93# a_728_93# a_1296_93# VPW nfet_05v0 ad=57.599995f pd=0.68u as=0.1584p ps=1.6u w=0.36u l=0.6u
X13 a_56_567# A2 VSS VPW nfet_05v0 ad=93.59999f pd=0.88u as=0.1584p ps=1.6u w=0.36u l=0.6u
X14 a_1948_68# a_1296_93# VSS VPW nfet_05v0 ad=0.2132p pd=1.34u as=0.218p ps=1.52u w=0.82u l=0.6u
X15 a_1296_93# a_728_93# VDD VNW pfet_05v0 ad=0.1456p pd=1.08u as=0.2464p ps=2u w=0.56u l=0.5u