* NGSPICE file created from NanoCGRA_Lite.ext - technology: gf180mcuD

.subckt gf180mcu_fd_sc_mcu7t5v0__clkinv_1 I ZN VDD VNW VPW VSS
X0 ZN I VSS VPW nfet_05v0 ad=0.2112p pd=1.84u as=0.2112p ps=1.84u w=0.48u l=0.6u
X1 ZN I VDD VNW pfet_05v0 ad=0.5368p pd=3.32u as=0.5368p ps=3.32u w=1.22u l=0.5u
.ends

.subckt gf180mcu_fd_sc_mcu7t5v0__oai22_1 A1 A2 B1 B2 ZN VDD VNW VPW VSS
X0 ZN A1 a_36_68# VPW nfet_05v0 ad=0.2132p pd=1.34u as=0.2132p ps=1.34u w=0.82u l=0.6u
X1 VSS B2 a_36_68# VPW nfet_05v0 ad=0.2132p pd=1.34u as=0.3608p ps=2.52u w=0.82u l=0.6u
X2 a_244_472# B2 VDD VNW pfet_05v0 ad=0.3782p pd=1.84u as=0.6588p ps=3.52u w=1.22u l=0.5u
X3 a_692_472# A1 ZN VNW pfet_05v0 ad=0.3172p pd=1.74u as=0.3782p ps=1.84u w=1.22u l=0.5u
X4 VDD A2 a_692_472# VNW pfet_05v0 ad=0.5368p pd=3.32u as=0.3172p ps=1.74u w=1.22u l=0.5u
X5 a_36_68# A2 ZN VPW nfet_05v0 ad=0.3608p pd=2.52u as=0.2132p ps=1.34u w=0.82u l=0.6u
X6 a_36_68# B1 VSS VPW nfet_05v0 ad=0.2132p pd=1.34u as=0.2132p ps=1.34u w=0.82u l=0.6u
X7 ZN B1 a_244_472# VNW pfet_05v0 ad=0.3782p pd=1.84u as=0.3782p ps=1.84u w=1.22u l=0.5u
.ends

.subckt gf180mcu_fd_sc_mcu7t5v0__nand2_1 A1 A2 ZN VDD VNW VPW VSS
X0 ZN A2 VDD VNW pfet_05v0 ad=0.2938p pd=1.65u as=0.4972p ps=3.14u w=1.13u l=0.5u
X1 ZN A1 a_245_68# VPW nfet_05v0 ad=0.3608p pd=2.52u as=0.1312p ps=1.14u w=0.82u l=0.6u
X2 VDD A1 ZN VNW pfet_05v0 ad=0.4972p pd=3.14u as=0.2938p ps=1.65u w=1.13u l=0.5u
X3 a_245_68# A2 VSS VPW nfet_05v0 ad=0.1312p pd=1.14u as=0.3608p ps=2.52u w=0.82u l=0.6u
.ends

.subckt gf180mcu_fd_sc_mcu7t5v0__aoi22_1 A1 A2 B1 B2 ZN VDD VNW VPW VSS
X0 ZN B1 a_257_69# VPW nfet_05v0 ad=0.2119p pd=1.335u as=0.1304p ps=1.135u w=0.815u l=0.6u
X1 VDD B2 a_49_472# VNW pfet_05v0 ad=0.3159p pd=1.735u as=0.5346p ps=3.31u w=1.215u l=0.5u
X2 a_49_472# B1 VDD VNW pfet_05v0 ad=0.3159p pd=1.735u as=0.3159p ps=1.735u w=1.215u l=0.5u
X3 ZN A1 a_49_472# VNW pfet_05v0 ad=0.3159p pd=1.735u as=0.3159p ps=1.735u w=1.215u l=0.5u
X4 a_49_472# A2 ZN VNW pfet_05v0 ad=0.5346p pd=3.31u as=0.3159p ps=1.735u w=1.215u l=0.5u
X5 a_257_69# B2 VSS VPW nfet_05v0 ad=0.1304p pd=1.135u as=0.3586p ps=2.51u w=0.815u l=0.6u
X6 a_665_69# A1 ZN VPW nfet_05v0 ad=0.1304p pd=1.135u as=0.2119p ps=1.335u w=0.815u l=0.6u
X7 VSS A2 a_665_69# VPW nfet_05v0 ad=0.3586p pd=2.51u as=0.1304p ps=1.135u w=0.815u l=0.6u
.ends

.subckt gf180mcu_fd_sc_mcu7t5v0__xnor3_1 A1 A2 A3 ZN VDD VNW VPW VSS
X0 a_952_93# A1 a_728_93# VPW nfet_05v0 ad=57.599995f pd=0.68u as=93.59999f ps=0.88u w=0.36u l=0.6u
X1 a_244_567# A2 a_56_567# VNW pfet_05v0 ad=0.1026p pd=0.93u as=0.1584p ps=1.6u w=0.36u l=0.5u
X2 a_728_93# A1 a_718_527# VNW pfet_05v0 ad=0.1456p pd=1.08u as=0.1596p ps=1.13u w=0.56u l=0.5u
X3 ZN A3 a_1948_68# VPW nfet_05v0 ad=0.4161p pd=1.905u as=0.2132p ps=1.34u w=0.82u l=0.6u
X4 ZN a_1296_93# VDD VNW pfet_05v0 ad=0.33945p pd=1.715u as=0.352075p ps=1.895u w=1.095u l=0.5u
X5 VDD a_728_93# a_2172_497# VNW pfet_05v0 ad=0.4818p pd=3.07u as=0.5256p ps=2.055u w=1.095u l=0.5u
X6 a_718_527# a_56_567# VDD VNW pfet_05v0 ad=0.1596p pd=1.13u as=0.184p ps=1.36u w=0.56u l=0.5u
X7 a_718_527# A2 a_728_93# VNW pfet_05v0 ad=0.2464p pd=2u as=0.1456p ps=1.08u w=0.56u l=0.5u
X8 VSS A1 a_56_567# VPW nfet_05v0 ad=0.126p pd=1.06u as=93.59999f ps=0.88u w=0.36u l=0.6u
X9 VSS A3 a_1504_93# VPW nfet_05v0 ad=0.218p pd=1.52u as=57.599995f ps=0.68u w=0.36u l=0.6u
X10 a_1948_68# a_728_93# ZN VPW nfet_05v0 ad=0.3608p pd=2.52u as=0.4161p ps=1.905u w=0.82u l=0.6u
X11 a_2172_497# A3 ZN VNW pfet_05v0 ad=0.5256p pd=2.055u as=0.33945p ps=1.715u w=1.095u l=0.5u
X12 a_1504_93# a_728_93# a_1296_93# VPW nfet_05v0 ad=57.599995f pd=0.68u as=0.1584p ps=1.6u w=0.36u l=0.6u
X13 a_56_567# A2 VSS VPW nfet_05v0 ad=93.59999f pd=0.88u as=0.1584p ps=1.6u w=0.36u l=0.6u
X14 a_1948_68# a_1296_93# VSS VPW nfet_05v0 ad=0.2132p pd=1.34u as=0.218p ps=1.52u w=0.82u l=0.6u
X15 a_1296_93# a_728_93# VDD VNW pfet_05v0 ad=0.1456p pd=1.08u as=0.2464p ps=2u w=0.56u l=0.5u
X16 a_728_93# a_56_567# VSS VPW nfet_05v0 ad=93.59999f pd=0.88u as=0.126p ps=1.06u w=0.36u l=0.6u
X17 VDD A3 a_1296_93# VNW pfet_05v0 ad=0.352075p pd=1.895u as=0.1456p ps=1.08u w=0.56u l=0.5u
X18 VDD A1 a_244_567# VNW pfet_05v0 ad=0.184p pd=1.36u as=0.1026p ps=0.93u w=0.36u l=0.5u
X19 VSS A2 a_952_93# VPW nfet_05v0 ad=0.1584p pd=1.6u as=57.599995f ps=0.68u w=0.36u l=0.6u
.ends

.subckt gf180mcu_fd_sc_mcu7t5v0__and2_1 A1 A2 Z VDD VNW VPW VSS
X0 VDD A2 a_36_159# VNW pfet_05v0 ad=0.40575p pd=2.055u as=0.156p ps=1.12u w=0.6u l=0.5u
X1 Z a_36_159# VDD VNW pfet_05v0 ad=0.5346p pd=3.31u as=0.40575p ps=2.055u w=1.215u l=0.5u
X2 Z a_36_159# VSS VPW nfet_05v0 ad=0.3586p pd=2.51u as=0.23405p ps=1.555u w=0.815u l=0.6u
X3 VSS A2 a_244_159# VPW nfet_05v0 ad=0.23405p pd=1.555u as=58.399994f ps=0.685u w=0.365u l=0.6u
X4 a_244_159# A1 a_36_159# VPW nfet_05v0 ad=58.399994f pd=0.685u as=0.1606p ps=1.61u w=0.365u l=0.6u
X5 a_36_159# A1 VDD VNW pfet_05v0 ad=0.156p pd=1.12u as=0.264p ps=2.08u w=0.6u l=0.5u
.ends

.subckt gf180mcu_fd_sc_mcu7t5v0__oai21_1 A1 A2 B ZN VDD VNW VPW VSS
X0 VSS B a_36_68# VPW nfet_05v0 ad=0.3608p pd=2.52u as=0.2132p ps=1.34u w=0.82u l=0.6u
X1 ZN A2 a_36_68# VPW nfet_05v0 ad=0.2132p pd=1.34u as=0.3608p ps=2.52u w=0.82u l=0.6u
X2 VDD B ZN VNW pfet_05v0 ad=0.4972p pd=3.14u as=0.4248p ps=1.94u w=1.13u l=0.5u
X3 a_244_472# A2 VDD VNW pfet_05v0 ad=0.3172p pd=1.74u as=0.5978p ps=3.42u w=1.22u l=0.5u
X4 ZN A1 a_244_472# VNW pfet_05v0 ad=0.4248p pd=1.94u as=0.3172p ps=1.74u w=1.22u l=0.5u
X5 a_36_68# A1 ZN VPW nfet_05v0 ad=0.2132p pd=1.34u as=0.2132p ps=1.34u w=0.82u l=0.6u
.ends

.subckt gf180mcu_fd_sc_mcu7t5v0__nor2_1 A1 A2 ZN VDD VNW VPW VSS
X0 ZN A1 a_224_472# VNW pfet_05v0 ad=0.5368p pd=3.32u as=0.4087p ps=1.89u w=1.22u l=0.5u
X1 VSS A1 ZN VPW nfet_05v0 ad=0.2486p pd=2.01u as=0.1469p ps=1.085u w=0.565u l=0.6u
X2 a_224_472# A2 VDD VNW pfet_05v0 ad=0.4087p pd=1.89u as=0.5368p ps=3.32u w=1.22u l=0.5u
X3 ZN A2 VSS VPW nfet_05v0 ad=0.1469p pd=1.085u as=0.2486p ps=2.01u w=0.565u l=0.6u
.ends

.subckt gf180mcu_fd_sc_mcu7t5v0__nand2_2 A1 A2 ZN VDD VNW VPW VSS
X0 a_244_68# A2 VSS VPW nfet_05v0 ad=0.1312p pd=1.14u as=0.3608p ps=2.52u w=0.82u l=0.6u
X1 ZN A1 a_244_68# VPW nfet_05v0 ad=0.2132p pd=1.34u as=0.1312p ps=1.14u w=0.82u l=0.6u
X2 ZN A2 VDD VNW pfet_05v0 ad=0.2938p pd=1.65u as=0.4972p ps=3.14u w=1.13u l=0.5u
X3 VDD A1 ZN VNW pfet_05v0 ad=0.2938p pd=1.65u as=0.2938p ps=1.65u w=1.13u l=0.5u
X4 a_652_68# A1 ZN VPW nfet_05v0 ad=0.1312p pd=1.14u as=0.2132p ps=1.34u w=0.82u l=0.6u
X5 VSS A2 a_652_68# VPW nfet_05v0 ad=0.3608p pd=2.52u as=0.1312p ps=1.14u w=0.82u l=0.6u
X6 ZN A1 VDD VNW pfet_05v0 ad=0.2938p pd=1.65u as=0.2938p ps=1.65u w=1.13u l=0.5u
X7 VDD A2 ZN VNW pfet_05v0 ad=0.4972p pd=3.14u as=0.2938p ps=1.65u w=1.13u l=0.5u
.ends

.subckt gf180mcu_fd_sc_mcu7t5v0__dffq_1 D CLK Q VDD VNW VPW VSS
X0 VSS CLK a_36_151# VPW nfet_05v0 ad=0.1053p pd=0.925u as=0.1782p ps=1.69u w=0.405u l=0.6u
X1 Q a_2304_115# VSS VPW nfet_05v0 ad=0.3608p pd=2.52u as=0.3608p ps=2.52u w=0.82u l=0.6u
X2 a_2304_115# a_2011_527# VSS VPW nfet_05v0 ad=0.176p pd=1.68u as=0.142p ps=1.14u w=0.4u l=0.6u
X3 a_1004_159# D a_836_159# VPW nfet_05v0 ad=0.207p pd=1.51u as=43.199997f ps=0.6u w=0.36u l=0.6u
X4 a_1004_159# D a_880_527# VNW pfet_05v0 ad=0.1872p pd=1.4u as=53.999996f ps=0.66u w=0.36u l=0.5u
X5 a_2011_527# a_36_151# a_1376_115# VNW pfet_05v0 ad=0.1665p pd=1.285u as=0.1791p ps=1.355u w=0.36u l=0.5u
X6 a_2296_527# a_448_472# a_2011_527# VNW pfet_05v0 ad=50.399998f pd=0.64u as=0.1665p ps=1.285u w=0.36u l=0.5u
X7 a_1376_115# a_1004_159# VDD VNW pfet_05v0 ad=0.1791p pd=1.355u as=0.1044p ps=0.94u w=0.36u l=0.5u
X8 VDD CLK a_36_151# VNW pfet_05v0 ad=0.2249p pd=1.385u as=0.3806p ps=2.61u w=0.865u l=0.5u
X9 VSS a_1376_115# a_1328_159# VPW nfet_05v0 ad=0.2637p pd=1.825u as=43.199997f ps=0.6u w=0.36u l=0.6u
X10 a_2011_527# a_448_472# a_1376_115# VPW nfet_05v0 ad=93.59999f pd=0.88u as=93.59999f ps=0.88u w=0.36u l=0.6u
X11 a_448_472# a_36_151# VDD VNW pfet_05v0 ad=0.3806p pd=2.61u as=0.2249p ps=1.385u w=0.865u l=0.5u
X12 Q a_2304_115# VDD VNW pfet_05v0 ad=0.5368p pd=3.32u as=0.5368p ps=3.32u w=1.22u l=0.5u
X13 a_1376_115# a_1004_159# VSS VPW nfet_05v0 ad=93.59999f pd=0.88u as=0.2637p ps=1.825u w=0.36u l=0.6u
X14 VSS a_2304_115# a_2256_159# VPW nfet_05v0 ad=0.142p pd=1.14u as=43.199997f ps=0.6u w=0.36u l=0.6u
X15 a_836_159# a_36_151# VSS VPW nfet_05v0 ad=43.199997f pd=0.6u as=0.1584p ps=1.6u w=0.36u l=0.6u
X16 a_448_472# a_36_151# VSS VPW nfet_05v0 ad=0.1782p pd=1.69u as=0.1053p ps=0.925u w=0.405u l=0.6u
X17 a_2256_159# a_36_151# a_2011_527# VPW nfet_05v0 ad=43.199997f pd=0.6u as=93.59999f ps=0.88u w=0.36u l=0.6u
X18 a_880_527# a_448_472# VDD VNW pfet_05v0 ad=53.999996f pd=0.66u as=0.4554p ps=3.25u w=0.36u l=0.5u
X19 a_1348_527# a_36_151# a_1004_159# VNW pfet_05v0 ad=43.199997f pd=0.6u as=0.1872p ps=1.4u w=0.36u l=0.5u
X20 a_1328_159# a_448_472# a_1004_159# VPW nfet_05v0 ad=43.199997f pd=0.6u as=0.207p ps=1.51u w=0.36u l=0.6u
X21 VDD a_1376_115# a_1348_527# VNW pfet_05v0 ad=0.1044p pd=0.94u as=43.199997f ps=0.6u w=0.36u l=0.5u
X22 VDD a_2304_115# a_2296_527# VNW pfet_05v0 ad=0.23p pd=1.54u as=50.399998f ps=0.64u w=0.36u l=0.5u
X23 a_2304_115# a_2011_527# VDD VNW pfet_05v0 ad=0.352p pd=2.48u as=0.23p ps=1.54u w=0.8u l=0.5u
.ends

.subckt gf180mcu_fd_sc_mcu7t5v0__buf_8 I Z VDD VNW VPW VSS
X0 a_224_472# I VDD VNW pfet_05v0 ad=0.3782p pd=1.84u as=0.3782p ps=1.84u w=1.22u l=0.5u
X1 Z a_224_472# VDD VNW pfet_05v0 ad=0.3782p pd=1.84u as=0.3782p ps=1.84u w=1.22u l=0.5u
X2 a_224_472# I VSS VPW nfet_05v0 ad=0.2132p pd=1.34u as=0.2132p ps=1.34u w=0.82u l=0.6u
X3 VSS a_224_472# Z VPW nfet_05v0 ad=0.3608p pd=2.52u as=0.2132p ps=1.34u w=0.82u l=0.6u
X4 VDD a_224_472# Z VNW pfet_05v0 ad=0.3782p pd=1.84u as=0.3782p ps=1.84u w=1.22u l=0.5u
X5 Z a_224_472# VDD VNW pfet_05v0 ad=0.3782p pd=1.84u as=0.3782p ps=1.84u w=1.22u l=0.5u
X6 a_224_472# I VSS VPW nfet_05v0 ad=0.2132p pd=1.34u as=0.3608p ps=2.52u w=0.82u l=0.6u
X7 Z a_224_472# VSS VPW nfet_05v0 ad=0.2132p pd=1.34u as=0.2132p ps=1.34u w=0.82u l=0.6u
X8 VDD a_224_472# Z VNW pfet_05v0 ad=0.3782p pd=1.84u as=0.3782p ps=1.84u w=1.22u l=0.5u
X9 Z a_224_472# VSS VPW nfet_05v0 ad=0.2132p pd=1.34u as=0.2132p ps=1.34u w=0.82u l=0.6u
X10 Z a_224_472# VSS VPW nfet_05v0 ad=0.2132p pd=1.34u as=0.2132p ps=1.34u w=0.82u l=0.6u
X11 VDD I a_224_472# VNW pfet_05v0 ad=0.3782p pd=1.84u as=0.3782p ps=1.84u w=1.22u l=0.5u
X12 VDD a_224_472# Z VNW pfet_05v0 ad=0.3782p pd=1.84u as=0.3782p ps=1.84u w=1.22u l=0.5u
X13 Z a_224_472# VDD VNW pfet_05v0 ad=0.3782p pd=1.84u as=0.3782p ps=1.84u w=1.22u l=0.5u
X14 VSS a_224_472# Z VPW nfet_05v0 ad=0.2132p pd=1.34u as=0.2132p ps=1.34u w=0.82u l=0.6u
X15 VDD I a_224_472# VNW pfet_05v0 ad=0.3782p pd=1.84u as=0.3782p ps=1.84u w=1.22u l=0.5u
X16 VSS a_224_472# Z VPW nfet_05v0 ad=0.2132p pd=1.34u as=0.2132p ps=1.34u w=0.82u l=0.6u
X17 VDD a_224_472# Z VNW pfet_05v0 ad=0.5368p pd=3.32u as=0.3782p ps=1.84u w=1.22u l=0.5u
X18 VSS a_224_472# Z VPW nfet_05v0 ad=0.2132p pd=1.34u as=0.2132p ps=1.34u w=0.82u l=0.6u
X19 Z a_224_472# VDD VNW pfet_05v0 ad=0.3782p pd=1.84u as=0.3782p ps=1.84u w=1.22u l=0.5u
X20 VSS I a_224_472# VPW nfet_05v0 ad=0.2132p pd=1.34u as=0.2132p ps=1.34u w=0.82u l=0.6u
X21 a_224_472# I VDD VNW pfet_05v0 ad=0.3782p pd=1.84u as=0.5368p ps=3.32u w=1.22u l=0.5u
X22 VSS I a_224_472# VPW nfet_05v0 ad=0.2132p pd=1.34u as=0.2132p ps=1.34u w=0.82u l=0.6u
X23 Z a_224_472# VSS VPW nfet_05v0 ad=0.2132p pd=1.34u as=0.2132p ps=1.34u w=0.82u l=0.6u
.ends

.subckt gf180mcu_fd_sc_mcu7t5v0__and3_1 A1 A2 A3 Z VDD VNW VPW VSS
X0 Z a_36_148# VDD VNW pfet_05v0 ad=0.5346p pd=3.31u as=0.4268p ps=2.175u w=1.215u l=0.5u
X1 a_428_148# A2 a_244_148# VPW nfet_05v0 ad=79.799995f pd=0.8u as=60.8f ps=0.7u w=0.38u l=0.6u
X2 Z a_36_148# VSS VPW nfet_05v0 ad=0.341p pd=2.43u as=0.2424p ps=1.635u w=0.775u l=0.6u
X3 VSS A3 a_428_148# VPW nfet_05v0 ad=0.2424p pd=1.635u as=79.799995f ps=0.8u w=0.38u l=0.6u
X4 a_244_148# A1 a_36_148# VPW nfet_05v0 ad=60.8f pd=0.7u as=0.1672p ps=1.64u w=0.38u l=0.6u
X5 VDD A1 a_36_148# VNW pfet_05v0 ad=0.1391p pd=1.055u as=0.2354p ps=1.95u w=0.535u l=0.5u
X6 a_36_148# A2 VDD VNW pfet_05v0 ad=0.1391p pd=1.055u as=0.1391p ps=1.055u w=0.535u l=0.5u
X7 VDD A3 a_36_148# VNW pfet_05v0 ad=0.4268p pd=2.175u as=0.1391p ps=1.055u w=0.535u l=0.5u
.ends

.subckt gf180mcu_fd_sc_mcu7t5v0__and4_1 A1 A2 A3 A4 Z VDD VNW VPW VSS
X0 a_48_148# A1 VDD VNW pfet_05v0 ad=0.156p pd=1.12u as=0.264p ps=2.08u w=0.6u l=0.5u
X1 a_440_148# A2 a_256_148# VPW nfet_05v0 ad=88.2f pd=0.84u as=67.2f ps=0.74u w=0.42u l=0.6u
X2 Z a_48_148# VSS VPW nfet_05v0 ad=0.3586p pd=2.51u as=0.226p ps=1.515u w=0.815u l=0.6u
X3 VDD A2 a_48_148# VNW pfet_05v0 ad=0.156p pd=1.12u as=0.156p ps=1.12u w=0.6u l=0.5u
X4 Z a_48_148# VDD VNW pfet_05v0 ad=0.5368p pd=3.32u as=0.395p ps=2.02u w=1.22u l=0.5u
X5 a_644_148# A3 a_440_148# VPW nfet_05v0 ad=88.2f pd=0.84u as=88.2f ps=0.84u w=0.42u l=0.6u
X6 a_48_148# A3 VDD VNW pfet_05v0 ad=0.156p pd=1.12u as=0.156p ps=1.12u w=0.6u l=0.5u
X7 VSS A4 a_644_148# VPW nfet_05v0 ad=0.226p pd=1.515u as=88.2f ps=0.84u w=0.42u l=0.6u
X8 VDD A4 a_48_148# VNW pfet_05v0 ad=0.395p pd=2.02u as=0.156p ps=1.12u w=0.6u l=0.5u
X9 a_256_148# A1 a_48_148# VPW nfet_05v0 ad=67.2f pd=0.74u as=0.1848p ps=1.72u w=0.42u l=0.6u
.ends

.subckt gf180mcu_fd_sc_mcu7t5v0__mux2_4 I0 I1 S Z VDD VNW VPW VSS
X0 VSS a_135_24# Z VPW nfet_05v0 ad=0.2132p pd=1.34u as=0.2132p ps=1.34u w=0.82u l=0.6u
X1 a_1151_68# I1 VSS VPW nfet_05v0 ad=98.399994f pd=1.06u as=0.2132p ps=1.34u w=0.82u l=0.6u
X2 VDD a_135_24# Z VNW pfet_05v0 ad=0.3782p pd=1.84u as=0.3782p ps=1.84u w=1.22u l=0.5u
X3 VSS I0 a_1543_68# VPW nfet_05v0 ad=0.2132p pd=1.34u as=0.1968p ps=1.3u w=0.82u l=0.6u
X4 Z a_135_24# VSS VPW nfet_05v0 ad=0.2132p pd=1.34u as=0.2132p ps=1.34u w=0.82u l=0.6u
X5 Z a_135_24# VSS VPW nfet_05v0 ad=0.2132p pd=1.34u as=0.3608p ps=2.52u w=0.82u l=0.6u
X6 a_135_24# a_1307_380# a_1151_472# VNW pfet_05v0 ad=0.3172p pd=1.74u as=0.4758p ps=2u w=1.22u l=0.5u
X7 a_1307_380# S VSS VPW nfet_05v0 ad=0.3608p pd=2.52u as=0.2132p ps=1.34u w=0.82u l=0.6u
X8 a_1611_472# S a_135_24# VNW pfet_05v0 ad=0.1464p pd=1.46u as=0.3172p ps=1.74u w=1.22u l=0.5u
X9 Z a_135_24# VDD VNW pfet_05v0 ad=0.3782p pd=1.84u as=0.5368p ps=3.32u w=1.22u l=0.5u
X10 VDD I0 a_1611_472# VNW pfet_05v0 ad=0.3172p pd=1.74u as=0.1464p ps=1.46u w=1.22u l=0.5u
X11 a_135_24# S a_1151_68# VPW nfet_05v0 ad=0.2132p pd=1.34u as=98.399994f ps=1.06u w=0.82u l=0.6u
X12 a_1307_380# S VDD VNW pfet_05v0 ad=0.5368p pd=3.32u as=0.3172p ps=1.74u w=1.22u l=0.5u
X13 Z a_135_24# VDD VNW pfet_05v0 ad=0.3477p pd=1.79u as=0.3782p ps=1.84u w=1.22u l=0.5u
X14 a_1543_68# a_1307_380# a_135_24# VPW nfet_05v0 ad=0.1968p pd=1.3u as=0.2132p ps=1.34u w=0.82u l=0.6u
X15 VDD a_135_24# Z VNW pfet_05v0 ad=0.4392p pd=1.94u as=0.3477p ps=1.79u w=1.22u l=0.5u
X16 VSS a_135_24# Z VPW nfet_05v0 ad=0.2132p pd=1.34u as=0.2132p ps=1.34u w=0.82u l=0.6u
X17 a_1151_472# I1 VDD VNW pfet_05v0 ad=0.4758p pd=2u as=0.4392p ps=1.94u w=1.22u l=0.5u
.ends

.subckt gf180mcu_fd_sc_mcu7t5v0__nor2_2 A1 A2 ZN VDD VNW VPW VSS
X0 a_672_472# A1 ZN VNW pfet_05v0 ad=0.4087p pd=1.89u as=0.3477p ps=1.79u w=1.22u l=0.5u
X1 ZN A1 VSS VPW nfet_05v0 ad=0.1469p pd=1.085u as=0.1469p ps=1.085u w=0.565u l=0.6u
X2 ZN A1 a_234_472# VNW pfet_05v0 ad=0.3477p pd=1.79u as=0.3782p ps=1.84u w=1.22u l=0.5u
X3 VSS A1 ZN VPW nfet_05v0 ad=0.1469p pd=1.085u as=0.1469p ps=1.085u w=0.565u l=0.6u
X4 a_234_472# A2 VDD VNW pfet_05v0 ad=0.3782p pd=1.84u as=0.5368p ps=3.32u w=1.22u l=0.5u
X5 VDD A2 a_672_472# VNW pfet_05v0 ad=0.5368p pd=3.32u as=0.4087p ps=1.89u w=1.22u l=0.5u
X6 VSS A2 ZN VPW nfet_05v0 ad=0.2486p pd=2.01u as=0.1469p ps=1.085u w=0.565u l=0.6u
X7 ZN A2 VSS VPW nfet_05v0 ad=0.1469p pd=1.085u as=0.2486p ps=2.01u w=0.565u l=0.6u
.ends

.subckt gf180mcu_fd_sc_mcu7t5v0__oai22_2 A1 A2 B1 B2 ZN VDD VNW VPW VSS
X0 VDD A2 a_1612_497# VNW pfet_05v0 ad=0.4818p pd=3.07u as=0.4599p ps=1.935u w=1.095u l=0.5u
X1 ZN B1 a_244_497# VNW pfet_05v0 ad=0.2847p pd=1.615u as=0.33945p ps=1.715u w=1.095u l=0.5u
X2 a_672_497# B1 ZN VNW pfet_05v0 ad=0.33945p pd=1.715u as=0.2847p ps=1.615u w=1.095u l=0.5u
X3 a_1140_497# A2 VDD VNW pfet_05v0 ad=0.4599p pd=1.935u as=0.3942p ps=1.815u w=1.095u l=0.5u
X4 VSS B1 a_36_68# VPW nfet_05v0 ad=0.2132p pd=1.34u as=0.2132p ps=1.34u w=0.82u l=0.6u
X5 VSS B2 a_36_68# VPW nfet_05v0 ad=0.2132p pd=1.34u as=0.3608p ps=2.52u w=0.82u l=0.6u
X6 a_36_68# A2 ZN VPW nfet_05v0 ad=0.3608p pd=2.52u as=0.30965p ps=1.685u w=0.82u l=0.6u
X7 a_244_497# B2 VDD VNW pfet_05v0 ad=0.33945p pd=1.715u as=0.4818p ps=3.07u w=1.095u l=0.5u
X8 a_36_68# A1 ZN VPW nfet_05v0 ad=0.2132p pd=1.34u as=0.30965p ps=1.685u w=0.82u l=0.6u
X9 ZN A1 a_1140_497# VNW pfet_05v0 ad=0.2847p pd=1.615u as=0.4599p ps=1.935u w=1.095u l=0.5u
X10 VDD B2 a_672_497# VNW pfet_05v0 ad=0.3942p pd=1.815u as=0.33945p ps=1.715u w=1.095u l=0.5u
X11 a_1612_497# A1 ZN VNW pfet_05v0 ad=0.4599p pd=1.935u as=0.2847p ps=1.615u w=1.095u l=0.5u
X12 ZN A1 a_36_68# VPW nfet_05v0 ad=0.30965p pd=1.685u as=0.2132p ps=1.34u w=0.82u l=0.6u
X13 a_36_68# B2 VSS VPW nfet_05v0 ad=0.2132p pd=1.34u as=0.2132p ps=1.34u w=0.82u l=0.6u
X14 a_36_68# B1 VSS VPW nfet_05v0 ad=0.2132p pd=1.34u as=0.2132p ps=1.34u w=0.82u l=0.6u
X15 ZN A2 a_36_68# VPW nfet_05v0 ad=0.30965p pd=1.685u as=0.2132p ps=1.34u w=0.82u l=0.6u
.ends

.subckt gf180mcu_fd_sc_mcu7t5v0__nor2_4 A1 A2 ZN VDD VNW VPW VSS
X0 a_1140_472# A2 VDD VNW pfet_05v0 ad=0.3172p pd=1.74u as=0.4392p ps=1.94u w=1.22u l=0.5u
X1 ZN A1 VSS VPW nfet_05v0 ad=0.1469p pd=1.085u as=0.1469p ps=1.085u w=0.565u l=0.6u
X2 ZN A1 a_1140_472# VNW pfet_05v0 ad=0.4392p pd=1.94u as=0.3172p ps=1.74u w=1.22u l=0.5u
X3 ZN A2 VSS VPW nfet_05v0 ad=0.1469p pd=1.085u as=0.2486p ps=2.01u w=0.565u l=0.6u
X4 a_1588_472# A1 ZN VNW pfet_05v0 ad=0.3172p pd=1.74u as=0.4392p ps=1.94u w=1.22u l=0.5u
X5 VDD A2 a_1588_472# VNW pfet_05v0 ad=0.5978p pd=3.42u as=0.3172p ps=1.74u w=1.22u l=0.5u
X6 ZN A1 VSS VPW nfet_05v0 ad=0.1469p pd=1.085u as=0.1469p ps=1.085u w=0.565u l=0.6u
X7 a_244_472# A2 VDD VNW pfet_05v0 ad=0.3172p pd=1.74u as=0.5978p ps=3.42u w=1.22u l=0.5u
X8 ZN A1 a_244_472# VNW pfet_05v0 ad=0.4392p pd=1.94u as=0.3172p ps=1.74u w=1.22u l=0.5u
X9 a_692_472# A1 ZN VNW pfet_05v0 ad=0.3172p pd=1.74u as=0.4392p ps=1.94u w=1.22u l=0.5u
X10 VSS A2 ZN VPW nfet_05v0 ad=0.2486p pd=2.01u as=0.1469p ps=1.085u w=0.565u l=0.6u
X11 VDD A2 a_692_472# VNW pfet_05v0 ad=0.4392p pd=1.94u as=0.3172p ps=1.74u w=1.22u l=0.5u
X12 VSS A1 ZN VPW nfet_05v0 ad=0.1469p pd=1.085u as=0.1469p ps=1.085u w=0.565u l=0.6u
X13 VSS A2 ZN VPW nfet_05v0 ad=0.1469p pd=1.085u as=0.1469p ps=1.085u w=0.565u l=0.6u
X14 VSS A1 ZN VPW nfet_05v0 ad=0.1469p pd=1.085u as=0.1469p ps=1.085u w=0.565u l=0.6u
X15 ZN A2 VSS VPW nfet_05v0 ad=0.1469p pd=1.085u as=0.1469p ps=1.085u w=0.565u l=0.6u
.ends

.subckt gf180mcu_fd_sc_mcu7t5v0__dffq_2 D CLK Q VDD VNW VPW VSS
X0 VSS a_2304_115# Q VPW nfet_05v0 ad=0.3608p pd=2.52u as=0.2132p ps=1.34u w=0.82u l=0.6u
X1 VSS CLK a_36_151# VPW nfet_05v0 ad=0.1053p pd=0.925u as=0.1782p ps=1.69u w=0.405u l=0.6u
X2 Q a_2304_115# VSS VPW nfet_05v0 ad=0.2132p pd=1.34u as=0.3608p ps=2.52u w=0.82u l=0.6u
X3 a_2304_115# a_2011_527# VSS VPW nfet_05v0 ad=0.176p pd=1.68u as=0.142p ps=1.14u w=0.4u l=0.6u
X4 a_1004_159# D a_836_159# VPW nfet_05v0 ad=0.207p pd=1.51u as=43.199997f ps=0.6u w=0.36u l=0.6u
X5 a_1004_159# D a_880_527# VNW pfet_05v0 ad=0.1872p pd=1.4u as=53.999996f ps=0.66u w=0.36u l=0.5u
X6 a_2011_527# a_36_151# a_1376_115# VNW pfet_05v0 ad=0.1665p pd=1.285u as=0.1791p ps=1.355u w=0.36u l=0.5u
X7 a_2296_527# a_448_472# a_2011_527# VNW pfet_05v0 ad=50.399998f pd=0.64u as=0.1665p ps=1.285u w=0.36u l=0.5u
X8 a_1376_115# a_1004_159# VDD VNW pfet_05v0 ad=0.1791p pd=1.355u as=0.1044p ps=0.94u w=0.36u l=0.5u
X9 VDD CLK a_36_151# VNW pfet_05v0 ad=0.2249p pd=1.385u as=0.3806p ps=2.61u w=0.865u l=0.5u
X10 VDD a_2304_115# Q VNW pfet_05v0 ad=0.854p pd=3.84u as=0.3172p ps=1.74u w=1.22u l=0.5u
X11 VSS a_1376_115# a_1328_159# VPW nfet_05v0 ad=0.2637p pd=1.825u as=43.199997f ps=0.6u w=0.36u l=0.6u
X12 a_2011_527# a_448_472# a_1376_115# VPW nfet_05v0 ad=93.59999f pd=0.88u as=93.59999f ps=0.88u w=0.36u l=0.6u
X13 a_448_472# a_36_151# VDD VNW pfet_05v0 ad=0.3806p pd=2.61u as=0.2249p ps=1.385u w=0.865u l=0.5u
X14 Q a_2304_115# VDD VNW pfet_05v0 ad=0.3172p pd=1.74u as=0.5368p ps=3.32u w=1.22u l=0.5u
X15 a_1376_115# a_1004_159# VSS VPW nfet_05v0 ad=93.59999f pd=0.88u as=0.2637p ps=1.825u w=0.36u l=0.6u
X16 VSS a_2304_115# a_2256_159# VPW nfet_05v0 ad=0.142p pd=1.14u as=43.199997f ps=0.6u w=0.36u l=0.6u
X17 a_836_159# a_36_151# VSS VPW nfet_05v0 ad=43.199997f pd=0.6u as=0.1584p ps=1.6u w=0.36u l=0.6u
X18 a_448_472# a_36_151# VSS VPW nfet_05v0 ad=0.1782p pd=1.69u as=0.1053p ps=0.925u w=0.405u l=0.6u
X19 a_2256_159# a_36_151# a_2011_527# VPW nfet_05v0 ad=43.199997f pd=0.6u as=93.59999f ps=0.88u w=0.36u l=0.6u
X20 a_880_527# a_448_472# VDD VNW pfet_05v0 ad=53.999996f pd=0.66u as=0.4554p ps=3.25u w=0.36u l=0.5u
X21 a_1348_527# a_36_151# a_1004_159# VNW pfet_05v0 ad=43.199997f pd=0.6u as=0.1872p ps=1.4u w=0.36u l=0.5u
X22 a_1328_159# a_448_472# a_1004_159# VPW nfet_05v0 ad=43.199997f pd=0.6u as=0.207p ps=1.51u w=0.36u l=0.6u
X23 VDD a_1376_115# a_1348_527# VNW pfet_05v0 ad=0.1044p pd=0.94u as=43.199997f ps=0.6u w=0.36u l=0.5u
X24 VDD a_2304_115# a_2296_527# VNW pfet_05v0 ad=0.23p pd=1.54u as=50.399998f ps=0.64u w=0.36u l=0.5u
X25 a_2304_115# a_2011_527# VDD VNW pfet_05v0 ad=0.352p pd=2.48u as=0.23p ps=1.54u w=0.8u l=0.5u
.ends

.subckt gf180mcu_fd_sc_mcu7t5v0__aoi221_1 A1 A2 B1 B2 C ZN VDD VNW VPW VSS
X0 a_672_472# C a_56_472# VNW pfet_05v0 ad=0.3402p pd=1.775u as=0.37665p ps=1.835u w=1.215u l=0.5u
X1 VDD B2 a_56_472# VNW pfet_05v0 ad=0.3159p pd=1.735u as=0.5346p ps=3.31u w=1.215u l=0.5u
X2 ZN A1 a_940_90# VPW nfet_05v0 ad=0.3124p pd=2.3u as=85.2f ps=0.95u w=0.71u l=0.6u
X3 a_56_472# B1 VDD VNW pfet_05v0 ad=0.37665p pd=1.835u as=0.3159p ps=1.735u w=1.215u l=0.5u
X4 a_672_472# A1 ZN VNW pfet_05v0 ad=0.5346p pd=3.31u as=0.37665p ps=1.835u w=1.215u l=0.5u
X5 ZN A2 a_672_472# VNW pfet_05v0 ad=0.37665p pd=1.835u as=0.3402p ps=1.775u w=1.215u l=0.5u
X6 a_244_90# B2 VSS VPW nfet_05v0 ad=85.2f pd=0.95u as=0.3124p ps=2.3u w=0.71u l=0.6u
X7 ZN B1 a_244_90# VPW nfet_05v0 ad=0.21175p pd=1.41u as=85.2f ps=0.95u w=0.71u l=0.6u
X8 a_940_90# A2 VSS VPW nfet_05v0 ad=85.2f pd=0.95u as=0.22595p ps=1.45u w=0.71u l=0.6u
X9 VSS C ZN VPW nfet_05v0 ad=0.22595p pd=1.45u as=0.21175p ps=1.41u w=0.465u l=0.6u
.ends

.subckt gf180mcu_fd_sc_mcu7t5v0__aoi222_2 A1 A2 B1 B2 C1 C2 ZN VDD VNW VPW VSS
X0 VSS C2 a_251_68# VPW nfet_05v0 ad=0.316p pd=1.59u as=96f ps=1.04u w=0.8u l=0.6u
X1 ZN C1 a_697_68# VPW nfet_05v0 ad=0.384p pd=1.76u as=0.124p ps=1.11u w=0.8u l=0.6u
X2 a_231_472# C1 VDD VNW pfet_05v0 ad=0.3172p pd=1.74u as=0.5368p ps=3.32u w=1.22u l=0.5u
X3 a_1003_472# B2 a_231_472# VNW pfet_05v0 ad=0.3172p pd=1.74u as=0.3172p ps=1.74u w=1.22u l=0.5u
X4 ZN A2 a_1003_472# VNW pfet_05v0 ad=0.3172p pd=1.74u as=0.3172p ps=1.74u w=1.22u l=0.5u
X5 ZN A1 a_1003_472# VNW pfet_05v0 ad=0.3172p pd=1.74u as=0.32635p ps=1.755u w=1.22u l=0.5u
X6 VSS B2 a_1191_68# VPW nfet_05v0 ad=0.208p pd=1.32u as=0.168p ps=1.22u w=0.8u l=0.6u
X7 a_231_472# B2 a_1003_472# VNW pfet_05v0 ad=0.3172p pd=1.74u as=0.3172p ps=1.74u w=1.22u l=0.5u
X8 a_1003_472# A1 ZN VNW pfet_05v0 ad=0.5368p pd=3.32u as=0.3172p ps=1.74u w=1.22u l=0.5u
X9 VDD C2 a_231_472# VNW pfet_05v0 ad=0.3172p pd=1.74u as=0.3172p ps=1.74u w=1.22u l=0.5u
X10 a_231_472# C2 VDD VNW pfet_05v0 ad=0.3172p pd=1.74u as=0.3172p ps=1.74u w=1.22u l=0.5u
X11 ZN B1 a_1619_68# VPW nfet_05v0 ad=0.214p pd=1.335u as=0.128p ps=1.12u w=0.8u l=0.6u
X12 VDD C1 a_231_472# VNW pfet_05v0 ad=0.5368p pd=3.32u as=0.3172p ps=1.74u w=1.22u l=0.5u
X13 a_2438_68# A2 VSS VPW nfet_05v0 ad=0.128p pd=1.12u as=0.208p ps=1.32u w=0.8u l=0.6u
X14 a_2030_68# A1 ZN VPW nfet_05v0 ad=0.128p pd=1.12u as=0.214p ps=1.335u w=0.8u l=0.6u
X15 a_251_68# C1 ZN VPW nfet_05v0 ad=96f pd=1.04u as=0.352p ps=2.48u w=0.8u l=0.6u
X16 a_1003_472# B1 a_231_472# VNW pfet_05v0 ad=0.32635p pd=1.755u as=0.3172p ps=1.74u w=1.22u l=0.5u
X17 VSS A2 a_2030_68# VPW nfet_05v0 ad=0.208p pd=1.32u as=0.128p ps=1.12u w=0.8u l=0.6u
X18 a_1191_68# B1 ZN VPW nfet_05v0 ad=0.168p pd=1.22u as=0.384p ps=1.76u w=0.8u l=0.6u
X19 a_1619_68# B2 VSS VPW nfet_05v0 ad=0.128p pd=1.12u as=0.208p ps=1.32u w=0.8u l=0.6u
X20 ZN A1 a_2438_68# VPW nfet_05v0 ad=0.352p pd=2.48u as=0.128p ps=1.12u w=0.8u l=0.6u
X21 a_231_472# B1 a_1003_472# VNW pfet_05v0 ad=0.3172p pd=1.74u as=0.5368p ps=3.32u w=1.22u l=0.5u
X22 a_697_68# C2 VSS VPW nfet_05v0 ad=0.124p pd=1.11u as=0.316p ps=1.59u w=0.8u l=0.6u
X23 a_1003_472# A2 ZN VNW pfet_05v0 ad=0.3172p pd=1.74u as=0.3172p ps=1.74u w=1.22u l=0.5u
.ends

.subckt gf180mcu_fd_sc_mcu7t5v0__xor3_1 A1 A2 A3 Z VDD VNW VPW VSS
X0 a_952_93# A1 a_728_93# VPW nfet_05v0 ad=57.599995f pd=0.68u as=93.59999f ps=0.88u w=0.36u l=0.6u
X1 a_728_93# A1 a_718_524# VNW pfet_05v0 ad=0.1469p pd=1.085u as=0.161025p ps=1.135u w=0.565u l=0.5u
X2 a_1524_472# a_728_93# a_1336_472# VNW pfet_05v0 ad=90.4f pd=0.885u as=0.2486p ps=2.01u w=0.565u l=0.5u
X3 a_244_524# A2 a_56_524# VNW pfet_05v0 ad=93.59999f pd=0.88u as=0.1584p ps=1.6u w=0.36u l=0.5u
X4 a_718_524# a_56_524# VDD VNW pfet_05v0 ad=0.161025p pd=1.135u as=0.194p ps=1.415u w=0.565u l=0.5u
X5 a_718_524# A2 a_728_93# VNW pfet_05v0 ad=0.2486p pd=2.01u as=0.1469p ps=1.085u w=0.565u l=0.5u
X6 VSS A1 a_56_524# VPW nfet_05v0 ad=0.126p pd=1.06u as=93.59999f ps=0.88u w=0.36u l=0.6u
X7 a_1336_472# a_728_93# VSS VPW nfet_05v0 ad=93.59999f pd=0.88u as=0.1584p ps=1.6u w=0.36u l=0.6u
X8 VDD A1 a_244_524# VNW pfet_05v0 ad=0.194p pd=1.415u as=93.59999f ps=0.88u w=0.36u l=0.5u
X9 a_56_524# A2 VSS VPW nfet_05v0 ad=93.59999f pd=0.88u as=0.1584p ps=1.6u w=0.36u l=0.6u
X10 VSS A3 a_1336_472# VPW nfet_05v0 ad=0.218p pd=1.52u as=93.59999f ps=0.88u w=0.36u l=0.6u
X11 a_2215_68# A3 Z VPW nfet_05v0 ad=0.1312p pd=1.14u as=0.2132p ps=1.34u w=0.82u l=0.6u
X12 VSS a_728_93# a_2215_68# VPW nfet_05v0 ad=0.3608p pd=2.52u as=0.1312p ps=1.14u w=0.82u l=0.6u
X13 Z a_1336_472# VSS VPW nfet_05v0 ad=0.2132p pd=1.34u as=0.218p ps=1.52u w=0.82u l=0.6u
X14 Z A3 a_1936_472# VNW pfet_05v0 ad=0.3172p pd=1.74u as=0.3172p ps=1.74u w=1.22u l=0.5u
X15 a_728_93# a_56_524# VSS VPW nfet_05v0 ad=93.59999f pd=0.88u as=0.126p ps=1.06u w=0.36u l=0.6u
X16 a_1936_472# a_728_93# Z VNW pfet_05v0 ad=0.5368p pd=3.32u as=0.3172p ps=1.74u w=1.22u l=0.5u
X17 VSS A2 a_952_93# VPW nfet_05v0 ad=0.1584p pd=1.6u as=57.599995f ps=0.68u w=0.36u l=0.6u
X18 VDD A3 a_1524_472# VNW pfet_05v0 ad=0.35315p pd=1.96u as=90.4f ps=0.885u w=0.565u l=0.5u
X19 a_1936_472# a_1336_472# VDD VNW pfet_05v0 ad=0.3172p pd=1.74u as=0.35315p ps=1.96u w=1.22u l=0.5u
.ends

.subckt gf180mcu_fd_sc_mcu7t5v0__aoi21_1 A1 A2 B ZN VDD VNW VPW VSS
X0 a_244_68# A2 VSS VPW nfet_05v0 ad=0.1312p pd=1.14u as=0.3608p ps=2.52u w=0.82u l=0.6u
X1 ZN A1 a_244_68# VPW nfet_05v0 ad=0.2569p pd=1.56u as=0.1312p ps=1.14u w=0.82u l=0.6u
X2 VDD B a_36_472# VNW pfet_05v0 ad=0.5346p pd=3.31u as=0.44955p ps=1.955u w=1.215u l=0.5u
X3 ZN A2 a_36_472# VNW pfet_05v0 ad=0.3159p pd=1.735u as=0.5346p ps=3.31u w=1.215u l=0.5u
X4 a_36_472# A1 ZN VNW pfet_05v0 ad=0.44955p pd=1.955u as=0.3159p ps=1.735u w=1.215u l=0.5u
X5 VSS B ZN VPW nfet_05v0 ad=0.2244p pd=1.9u as=0.2569p ps=1.56u w=0.51u l=0.6u
.ends

.subckt gf180mcu_fd_sc_mcu7t5v0__nand2_4 A1 A2 ZN VDD VNW VPW VSS
X0 ZN A1 VDD VNW pfet_05v0 ad=0.2938p pd=1.65u as=0.2938p ps=1.65u w=1.13u l=0.5u
X1 VSS A2 a_661_68# VPW nfet_05v0 ad=0.22755p pd=1.375u as=98.399994f ps=1.06u w=0.82u l=0.6u
X2 VDD A2 ZN VNW pfet_05v0 ad=0.2938p pd=1.65u as=0.2938p ps=1.65u w=1.13u l=0.5u
X3 ZN A1 a_260_68# VPW nfet_05v0 ad=0.23165p pd=1.385u as=98.399994f ps=1.06u w=0.82u l=0.6u
X4 a_1468_68# A1 ZN VPW nfet_05v0 ad=0.1312p pd=1.14u as=0.2132p ps=1.34u w=0.82u l=0.6u
X5 ZN A2 VDD VNW pfet_05v0 ad=0.2938p pd=1.65u as=0.2938p ps=1.65u w=1.13u l=0.5u
X6 VDD A1 ZN VNW pfet_05v0 ad=0.2938p pd=1.65u as=0.2938p ps=1.65u w=1.13u l=0.5u
X7 ZN A1 a_1060_68# VPW nfet_05v0 ad=0.2132p pd=1.34u as=0.1312p ps=1.14u w=0.82u l=0.6u
X8 ZN A1 VDD VNW pfet_05v0 ad=0.2938p pd=1.65u as=0.2938p ps=1.65u w=1.13u l=0.5u
X9 a_661_68# A1 ZN VPW nfet_05v0 ad=98.399994f pd=1.06u as=0.23165p ps=1.385u w=0.82u l=0.6u
X10 a_1060_68# A2 VSS VPW nfet_05v0 ad=0.1312p pd=1.14u as=0.22755p ps=1.375u w=0.82u l=0.6u
X11 VDD A2 ZN VNW pfet_05v0 ad=0.4972p pd=3.14u as=0.2938p ps=1.65u w=1.13u l=0.5u
X12 a_260_68# A2 VSS VPW nfet_05v0 ad=98.399994f pd=1.06u as=0.3608p ps=2.52u w=0.82u l=0.6u
X13 VSS A2 a_1468_68# VPW nfet_05v0 ad=0.3608p pd=2.52u as=0.1312p ps=1.14u w=0.82u l=0.6u
X14 ZN A2 VDD VNW pfet_05v0 ad=0.2938p pd=1.65u as=0.4972p ps=3.14u w=1.13u l=0.5u
X15 VDD A1 ZN VNW pfet_05v0 ad=0.2938p pd=1.65u as=0.2938p ps=1.65u w=1.13u l=0.5u
.ends

.subckt gf180mcu_fd_sc_mcu7t5v0__aoi221_4 A1 A2 B1 B2 C ZN VDD VNW VPW VSS
X0 VSS B2 a_1070_69# VPW nfet_05v0 ad=0.2002p pd=1.29u as=0.1232p ps=1.09u w=0.77u l=0.6u
X1 VDD B2 a_234_508# VNW pfet_05v0 ad=0.2691p pd=1.555u as=0.2691p ps=1.555u w=1.035u l=0.5u
X2 VSS A2 a_3728_69# VPW nfet_05v0 ad=0.2002p pd=1.29u as=0.1232p ps=1.09u w=0.77u l=0.6u
X3 a_234_508# C a_1822_472# VNW pfet_05v0 ad=0.346275p pd=1.785u as=0.3159p ps=1.735u w=1.215u l=0.5u
X4 a_1822_472# A1 ZN VNW pfet_05v0 ad=0.3159p pd=1.735u as=0.3159p ps=1.735u w=1.215u l=0.5u
X5 a_234_508# C a_1822_472# VNW pfet_05v0 ad=0.3159p pd=1.735u as=0.5346p ps=3.31u w=1.215u l=0.5u
X6 ZN A2 a_1822_472# VNW pfet_05v0 ad=0.3159p pd=1.735u as=0.3159p ps=1.735u w=1.215u l=0.5u
X7 a_1070_69# B1 ZN VPW nfet_05v0 ad=0.1232p pd=1.09u as=0.2002p ps=1.29u w=0.77u l=0.6u
X8 a_234_508# B2 VDD VNW pfet_05v0 ad=0.2691p pd=1.555u as=0.2691p ps=1.555u w=1.035u l=0.5u
X9 ZN A1 a_1822_472# VNW pfet_05v0 ad=0.3159p pd=1.735u as=0.3159p ps=1.735u w=1.215u l=0.5u
X10 a_1822_472# A1 ZN VNW pfet_05v0 ad=0.5346p pd=3.31u as=0.3159p ps=1.735u w=1.215u l=0.5u
X11 VDD B1 a_234_508# VNW pfet_05v0 ad=0.4554p pd=2.95u as=0.2691p ps=1.555u w=1.035u l=0.5u
X12 a_1822_472# A2 ZN VNW pfet_05v0 ad=0.3159p pd=1.735u as=0.3159p ps=1.735u w=1.215u l=0.5u